<?xml version="1.0" encoding="UTF-8"?>

<!-- generated on 2025-03-09 12:11:00.268687 by osmWebWizard.py v1_21_0+1920-92e75aa0ef4
<configuration>
    <net-file value="/home/azura/Desktop/sumo/sumo/tools/2025-03-09-12-10-30/osm.net.xml.gz"/>
    <output-trip-file value="/home/azura/Desktop/sumo/sumo/tools/2025-03-09-12-10-30/osm.bus.trips.xml"/>
    <route-file value="/home/azura/Desktop/sumo/sumo/tools/2025-03-09-12-10-30/osm.bus.rou.xml"/>
    <prefix value="bus"/>
    <trip-attributes value="departLane=&quot;best&quot;"/>
    <fringe-start-attributes value="departSpeed=&quot;max&quot;"/>
    <vehicle-class value="bus"/>
    <fringe-factor value="5"/>
    <vclass value="bus"/>
    <via-edge-types value="highway.motorway,highway.motorway_link,highway.trunk_link,highway.primary_link,highway.secondary_link,highway.tertiary_link"/>
    <min-distance value="600.0"/>
    <min-distance.fringe value="10.0"/>
    <remove-loops value="True"/>
    <validate value="True"/>
    <insertion-density value="4.0"/>
</configuration>
-->

<!-- generated on 2025-03-09 12:11:00 by Eclipse SUMO duarouter Version v1_21_0+1920-92e75aa0ef4
<duarouterConfiguration xmlns:xsi="http://www.w3.org/2001/XMLSchema-instance" xsi:noNamespaceSchemaLocation="http://sumo.dlr.de/xsd/duarouterConfiguration.xsd">

    <input>
        <net-file value="/home/azura/Desktop/sumo/sumo/tools/2025-03-09-12-10-30/osm.net.xml.gz"/>
        <route-files value="/home/azura/Desktop/sumo/sumo/tools/2025-03-09-12-10-30/osm.bus.trips.xml"/>
    </input>

    <output>
        <output-file value="/home/azura/Desktop/sumo/sumo/tools/2025-03-09-12-10-30/osm.bus.trips.xml.tmp"/>
        <alternatives-output value="NUL"/>
        <write-trips value="true"/>
    </output>

    <processing>
        <remove-loops value="true"/>
    </processing>

    <time>
        <begin value="0.0"/>
        <end value="3600.0"/>
    </time>

    <report>
        <no-warnings value="true"/>
        <ignore-errors value="true"/>
        <no-step-log value="true"/>
    </report>

</duarouterConfiguration>
-->

<routes xmlns:xsi="http://www.w3.org/2001/XMLSchema-instance" xsi:noNamespaceSchemaLocation="http://sumo.dlr.de/xsd/routes_file.xsd">
    <vType id="bus_bus" vClass="bus"/>
    <trip id="bus1" type="bus_bus" depart="15.91" departLane="best" from="312654705#2" to="24968394#4"/>
    <trip id="bus2" type="bus_bus" depart="31.82" departLane="best" from="4615007#12" to="-1139102399#0"/>
    <trip id="bus3" type="bus_bus" depart="47.72" departLane="best" from="1095407472#1" to="-1052756577#0"/>
    <trip id="bus4" type="bus_bus" depart="63.63" departLane="best" from="34580834#21" to="1134090050"/>
    <trip id="bus5" type="bus_bus" depart="79.54" departLane="best" from="-1052675228#1" to="-29054704#1"/>
    <trip id="bus6" type="bus_bus" depart="95.45" departLane="best" from="-24241797#0" to="1151940481#1"/>
    <trip id="bus7" type="bus_bus" depart="111.36" departLane="best" from="4606258#3" to="-1024034687#7"/>
    <trip id="bus8" type="bus_bus" depart="127.26" departLane="best" from="4606218#1" to="296598505"/>
    <trip id="bus9" type="bus_bus" depart="143.17" departLane="best" departSpeed="max" from="-699211935#2" to="184429424#6"/>
    <trip id="bus10" type="bus_bus" depart="159.08" departLane="best" from="-1140689523#4" to="-1141076639#0"/>
    <trip id="bus11" type="bus_bus" depart="174.99" departLane="best" from="4613295#2" to="184429424#1"/>
    <trip id="bus12" type="bus_bus" depart="190.90" departLane="best" from="4606258#0" to="312651886#2"/>
    <trip id="bus13" type="bus_bus" depart="206.80" departLane="best" from="1144528537#0" to="8149654#5"/>
    <trip id="bus15" type="bus_bus" depart="238.62" departLane="best" from="4613306#0" to="147657122#1"/>
    <trip id="bus16" type="bus_bus" depart="254.53" departLane="best" from="-369223458#0" to="4615005#2"/>
    <trip id="bus17" type="bus_bus" depart="270.44" departLane="best" departSpeed="max" from="-1134090050" to="-36892597#2"/>
    <trip id="bus18" type="bus_bus" depart="286.34" departLane="best" from="23809678#6" to="-981295183#3"/>
    <trip id="bus19" type="bus_bus" depart="302.25" departLane="best" from="-981295180" to="-312926085#0"/>
    <trip id="bus20" type="bus_bus" depart="318.16" departLane="best" from="-4613300#10" to="690429978#2"/>
    <trip id="bus21" type="bus_bus" depart="334.07" departLane="best" from="-24241762#2" to="184430983#8"/>
    <trip id="bus22" type="bus_bus" depart="349.98" departLane="best" from="234463931#0" to="312651884#9"/>
    <trip id="bus23" type="bus_bus" depart="365.88" departLane="best" from="-19002363#2" to="-1040630268#1"/>
    <trip id="bus24" type="bus_bus" depart="381.79" departLane="best" from="940016786#8" to="23809670#1"/>
    <trip id="bus25" type="bus_bus" depart="397.70" departLane="best" from="-1199334219#6" to="-267542609#0"/>
    <trip id="bus26" type="bus_bus" depart="413.61" departLane="best" from="4613292#0" to="376759635#1"/>
    <trip id="bus27" type="bus_bus" depart="429.52" departLane="best" from="-369223458#3" to="-1052756577#0"/>
    <trip id="bus28" type="bus_bus" depart="445.42" departLane="best" from="4615498#0" to="4613299#2"/>
    <trip id="bus29" type="bus_bus" depart="461.33" departLane="best" from="-1052735197#1" to="-4615498#2"/>
    <trip id="bus30" type="bus_bus" depart="477.24" departLane="best" from="4790833" to="1120993183#3"/>
    <trip id="bus31" type="bus_bus" depart="493.15" departLane="best" from="-4613299#3" to="-4296469#1"/>
    <trip id="bus32" type="bus_bus" depart="509.05" departLane="best" from="-120948266#4" to="-4613287#1"/>
    <trip id="bus33" type="bus_bus" depart="524.96" departLane="best" from="-180331459#1" to="4615497#6"/>
    <trip id="bus34" type="bus_bus" depart="540.87" departLane="best" from="981295182" to="1138687770#4"/>
    <trip id="bus35" type="bus_bus" depart="556.78" departLane="best" from="1152689710" to="195401013#2"/>
    <trip id="bus36" type="bus_bus" depart="572.69" departLane="best" from="4296469#6" to="1096709561"/>
    <trip id="bus37" type="bus_bus" depart="588.59" departLane="best" from="234463931#1" to="1052675127#1"/>
    <trip id="bus38" type="bus_bus" depart="604.50" departLane="best" from="980371139#4" to="1140771916#0"/>
    <trip id="bus39" type="bus_bus" depart="620.41" departLane="best" from="-8149654#7" to="4614987#8"/>
    <trip id="bus40" type="bus_bus" depart="636.32" departLane="best" departSpeed="max" from="25134073" to="-1144528535#0"/>
    <trip id="bus41" type="bus_bus" depart="652.23" departLane="best" from="-4613300#1" to="23809670#1"/>
    <trip id="bus42" type="bus_bus" depart="668.13" departLane="best" from="4615002#1" to="-4613293#0"/>
    <trip id="bus43" type="bus_bus" depart="684.04" departLane="best" from="1133993538" to="24241762#1"/>
    <trip id="bus44" type="bus_bus" depart="699.95" departLane="best" departSpeed="max" from="4790810" to="4615004#3"/>
    <trip id="bus45" type="bus_bus" depart="715.86" departLane="best" from="-4615007#12" to="23809670#1"/>
    <trip id="bus46" type="bus_bus" depart="731.77" departLane="best" from="187111590" to="-184429424#0"/>
    <trip id="bus47" type="bus_bus" depart="747.67" departLane="best" from="34580834#23" to="-1150954111#1"/>
    <trip id="bus48" type="bus_bus" depart="763.58" departLane="best" from="-1225924291#1" to="1141076640#1"/>
    <trip id="bus49" type="bus_bus" depart="779.49" departLane="best" from="-1006033769" to="-690429978#0"/>
    <trip id="bus50" type="bus_bus" depart="795.40" departLane="best" from="-1052675177#0" to="523630412#0"/>
    <trip id="bus51" type="bus_bus" depart="811.31" departLane="best" from="4615003#3" to="4613294#1"/>
    <trip id="bus52" type="bus_bus" depart="827.21" departLane="best" departSpeed="max" from="-4615407#2" to="110464119#2"/>
    <trip id="bus53" type="bus_bus" depart="843.12" departLane="best" from="-4615003#2" to="-717177007#1"/>
    <trip id="bus54" type="bus_bus" depart="859.03" departLane="best" from="-1133761627#0" to="34580834#9"/>
    <trip id="bus55" type="bus_bus" depart="874.94" departLane="best" from="1133761589#1" to="-24241762#0"/>
    <trip id="bus56" type="bus_bus" depart="890.85" departLane="best" from="-4613299#6" to="4615005#3"/>
    <trip id="bus57" type="bus_bus" depart="906.75" departLane="best" from="1095407474#2" to="-312926086#2"/>
    <trip id="bus58" type="bus_bus" depart="922.66" departLane="best" from="1151940481#0" to="312651886#2"/>
    <trip id="bus59" type="bus_bus" depart="938.57" departLane="best" from="1098856714#3" to="1139102398#3"/>
    <trip id="bus60" type="bus_bus" depart="954.48" departLane="best" from="-699211935#1" to="-173197451#6"/>
    <trip id="bus61" type="bus_bus" depart="970.39" departLane="best" from="-371927739#0" to="-34580834#10"/>
    <trip id="bus62" type="bus_bus" depart="986.29" departLane="best" from="-1133992720#2" to="19801644#3"/>
    <trip id="bus63" type="bus_bus" depart="1002.20" departLane="best" from="-369223458#3" to="4615500"/>
    <trip id="bus64" type="bus_bus" depart="1018.11" departLane="best" from="4606258#0" to="-25134073"/>
    <trip id="bus65" type="bus_bus" depart="1034.02" departLane="best" from="1141519049#0" to="1098856696"/>
    <trip id="bus66" type="bus_bus" depart="1049.93" departLane="best" from="1052675228#1" to="-755340907#0"/>
    <trip id="bus67" type="bus_bus" depart="1065.83" departLane="best" from="4613306#0" to="4296469#6"/>
    <trip id="bus69" type="bus_bus" depart="1097.65" departLane="best" from="981295183#3" to="4613295#5"/>
    <trip id="bus70" type="bus_bus" depart="1113.56" departLane="best" from="1133992726#0" to="-31619761#0"/>
    <trip id="bus71" type="bus_bus" depart="1129.47" departLane="best" from="-1052675227#4" to="1105526111#1"/>
    <trip id="bus72" type="bus_bus" depart="1145.37" departLane="best" from="1024034687#0" to="940016786#1"/>
    <trip id="bus73" type="bus_bus" depart="1161.28" departLane="best" from="-4613299#6" to="4296469#4"/>
    <trip id="bus74" type="bus_bus" depart="1177.19" departLane="best" from="-1105526111#1" to="1096709564#1"/>
    <trip id="bus75" type="bus_bus" depart="1193.10" departLane="best" from="-1199334219#4" to="31145647#1"/>
    <trip id="bus76" type="bus_bus" depart="1209.01" departLane="best" from="1152640372#3" to="34580834#1"/>
    <trip id="bus77" type="bus_bus" depart="1224.91" departLane="best" from="-110464119#1" to="16571799#8"/>
    <trip id="bus78" type="bus_bus" depart="1240.82" departLane="best" from="1138687769" to="46138135#1"/>
    <trip id="bus79" type="bus_bus" depart="1256.73" departLane="best" from="184430983#4" to="19002403#1"/>
    <trip id="bus80" type="bus_bus" depart="1272.64" departLane="best" departSpeed="max" from="-1134090050" to="-24684997#5"/>
    <trip id="bus81" type="bus_bus" depart="1288.55" departLane="best" from="-373389574#4" to="4615006#9"/>
    <trip id="bus82" type="bus_bus" depart="1304.45" departLane="best" from="4615007#0" to="-4296469#1"/>
    <trip id="bus83" type="bus_bus" depart="1320.36" departLane="best" from="184077630#3" to="19002357#1"/>
    <trip id="bus84" type="bus_bus" depart="1336.27" departLane="best" from="-4615407#0" to="16571799#6"/>
    <trip id="bus85" type="bus_bus" depart="1352.18" departLane="best" from="-41927001#0" to="1052735197#0"/>
    <trip id="bus86" type="bus_bus" depart="1368.09" departLane="best" from="24914141#8" to="-4615007#13"/>
    <trip id="bus87" type="bus_bus" depart="1383.99" departLane="best" from="4615498#1" to="34580834#17"/>
    <trip id="bus88" type="bus_bus" depart="1399.90" departLane="best" from="-1133992729#1" to="1120993183#3"/>
    <trip id="bus89" type="bus_bus" depart="1415.81" departLane="best" from="981295183#0" to="980371139#4"/>
    <trip id="bus90" type="bus_bus" depart="1431.72" departLane="best" from="-1133992729#3" to="-312926086#4"/>
    <trip id="bus91" type="bus_bus" depart="1447.63" departLane="best" from="-4613299#6" to="59546763#1"/>
    <trip id="bus92" type="bus_bus" depart="1463.53" departLane="best" from="-981295173#0" to="184430983#3"/>
    <trip id="bus94" type="bus_bus" depart="1495.35" departLane="best" from="188914559" to="940016786#4"/>
    <trip id="bus95" type="bus_bus" depart="1511.26" departLane="best" from="24243530#2" to="-1024034687#9"/>
    <trip id="bus97" type="bus_bus" depart="1543.07" departLane="best" from="16571799#4" to="1199334220#3"/>
    <trip id="bus98" type="bus_bus" depart="1558.98" departLane="best" from="-46138134#2" to="-184429424#5"/>
    <trip id="bus99" type="bus_bus" depart="1574.89" departLane="best" from="1133992729#1" to="4615500"/>
    <trip id="bus100" type="bus_bus" depart="1590.80" departLane="best" departSpeed="max" from="312926085#0" to="1157444126#1"/>
    <trip id="bus101" type="bus_bus" depart="1606.70" departLane="best" from="-1133992729#7" to="4615007#14"/>
    <trip id="bus103" type="bus_bus" depart="1638.52" departLane="best" from="-184077630#11" to="371927739#4"/>
    <trip id="bus104" type="bus_bus" depart="1654.43" departLane="best" from="44122832#0" to="4614987#6"/>
    <trip id="bus105" type="bus_bus" depart="1670.34" departLane="best" from="4615362#2" to="-312926085#0"/>
    <trip id="bus106" type="bus_bus" depart="1686.24" departLane="best" from="4606258#3" to="-1150954111#1"/>
    <trip id="bus107" type="bus_bus" depart="1702.15" departLane="best" from="373389574#1" to="4615007#2"/>
    <trip id="bus108" type="bus_bus" depart="1718.06" departLane="best" from="1052756578#1" to="19002363#2"/>
    <trip id="bus109" type="bus_bus" depart="1733.97" departLane="best" from="59546763#1" to="552963268"/>
    <trip id="bus110" type="bus_bus" depart="1749.88" departLane="best" from="46140376#2" to="8149657#1"/>
    <trip id="bus111" type="bus_bus" depart="1765.78" departLane="best" from="4606258#5" to="4615007#11"/>
    <trip id="bus112" type="bus_bus" depart="1781.69" departLane="best" from="671026861#0" to="55741054"/>
    <trip id="bus113" type="bus_bus" depart="1797.60" departLane="best" from="457031289" to="-4615001#0"/>
    <trip id="bus114" type="bus_bus" depart="1813.51" departLane="best" from="4606258#5" to="-4613299#0"/>
    <trip id="bus116" type="bus_bus" depart="1845.32" departLane="best" from="1119855803#0" to="-4615404#0"/>
    <trip id="bus117" type="bus_bus" depart="1861.23" departLane="best" from="-1052675227#3" to="-267542609#2"/>
    <trip id="bus118" type="bus_bus" depart="1877.14" departLane="best" from="48303485#4" to="-4615001#0"/>
    <trip id="bus119" type="bus_bus" depart="1893.05" departLane="best" from="-8149654#13" to="4614987#4"/>
    <trip id="bus120" type="bus_bus" depart="1908.96" departLane="best" from="23852056#1" to="-1052756578#3"/>
    <trip id="bus121" type="bus_bus" depart="1924.86" departLane="best" from="847103786#2" to="-1144528536"/>
    <trip id="bus122" type="bus_bus" depart="1940.77" departLane="best" from="-8149654#6" to="-24241762#1"/>
    <trip id="bus123" type="bus_bus" depart="1956.68" departLane="best" from="8149653#0" to="4613296#1"/>
    <trip id="bus124" type="bus_bus" depart="1972.59" departLane="best" from="-312645512#3" to="-4615498#0"/>
    <trip id="bus125" type="bus_bus" depart="1988.50" departLane="best" from="1024034687#9" to="147646826#2"/>
    <trip id="bus127" type="bus_bus" depart="2020.31" departLane="best" from="-1024034687#0" to="49180827#7"/>
    <trip id="bus128" type="bus_bus" depart="2036.22" departLane="best" departSpeed="max" from="312926085#0" to="247402308#1"/>
    <trip id="bus129" type="bus_bus" depart="2052.13" departLane="best" from="-8149654#9" to="-1133761629#0"/>
    <trip id="bus130" type="bus_bus" depart="2068.04" departLane="best" from="307098733#1" to="-4615007#2"/>
    <trip id="bus131" type="bus_bus" depart="2083.94" departLane="best" from="-1052675227#6" to="4615006#6"/>
    <trip id="bus132" type="bus_bus" depart="2099.85" departLane="best" from="371927739#4" to="1096709556#2"/>
    <trip id="bus133" type="bus_bus" depart="2115.76" departLane="best" from="-690429978#4" to="24968394#5"/>
    <trip id="bus134" type="bus_bus" depart="2131.67" departLane="best" from="-4615007#4" to="1152640372#5"/>
    <trip id="bus135" type="bus_bus" depart="2147.58" departLane="best" from="-1006033769" to="-4615004#0"/>
    <trip id="bus136" type="bus_bus" depart="2163.48" departLane="best" from="1096709564#3" to="154046793#2"/>
    <trip id="bus137" type="bus_bus" depart="2179.39" departLane="best" from="24243530#3" to="112128418#4"/>
    <trip id="bus138" type="bus_bus" depart="2195.30" departLane="best" from="-110131897#2" to="-31619761#0"/>
    <trip id="bus139" type="bus_bus" depart="2211.21" departLane="best" from="1122497068#1" to="-4615498#0"/>
    <trip id="bus140" type="bus_bus" depart="2227.12" departLane="best" from="234463931#1" to="-717177007#4"/>
    <trip id="bus141" type="bus_bus" depart="2243.02" departLane="best" departSpeed="max" from="4610354#0" to="34580834#16"/>
    <trip id="bus142" type="bus_bus" depart="2258.93" departLane="best" from="24968394#1" to="-34580834#2"/>
    <trip id="bus143" type="bus_bus" depart="2274.84" departLane="best" from="-29054704#2" to="1052675227#4"/>
    <trip id="bus144" type="bus_bus" depart="2290.75" departLane="best" from="4606218#0" to="1133761676#1"/>
    <trip id="bus145" type="bus_bus" depart="2306.66" departLane="best" from="4613295#6" to="1133992729#1"/>
    <trip id="bus146" type="bus_bus" depart="2322.56" departLane="best" from="-268002743#0" to="295445243"/>
    <trip id="bus147" type="bus_bus" depart="2338.47" departLane="best" from="1133992733#1" to="370359204#3"/>
    <trip id="bus148" type="bus_bus" depart="2354.38" departLane="best" from="24243530#6" to="-1024034687#5"/>
    <trip id="bus149" type="bus_bus" depart="2370.29" departLane="best" from="-1152640371#0" to="1096709564#4"/>
    <trip id="bus150" type="bus_bus" depart="2386.20" departLane="best" departSpeed="max" from="-23813206" to="-740848375"/>
    <trip id="bus151" type="bus_bus" depart="2402.10" departLane="best" from="4606258#3" to="4613306#0"/>
    <trip id="bus152" type="bus_bus" depart="2418.01" departLane="best" from="11103418#3" to="-4606258#2"/>
    <trip id="bus153" type="bus_bus" depart="2433.92" departLane="best" departSpeed="max" from="24913524#0" to="940016786#5"/>
    <trip id="bus154" type="bus_bus" depart="2449.83" departLane="best" from="184077630#5" to="-717177007#17"/>
    <trip id="bus155" type="bus_bus" depart="2465.74" departLane="best" from="4615007#11" to="187091991"/>
    <trip id="bus156" type="bus_bus" depart="2481.64" departLane="best" from="305093247#2" to="1134090050"/>
    <trip id="bus158" type="bus_bus" depart="2513.46" departLane="best" from="4615007#8" to="-320894149#0"/>
    <trip id="bus159" type="bus_bus" depart="2529.37" departLane="best" from="-1133992736#0" to="-4606259#2"/>
    <trip id="bus160" type="bus_bus" depart="2545.27" departLane="best" from="4606258#0" to="-234463931#0"/>
    <trip id="bus161" type="bus_bus" depart="2561.18" departLane="best" from="34580834#6" to="-1139400321#3"/>
    <trip id="bus162" type="bus_bus" depart="2577.09" departLane="best" departSpeed="max" from="22773266#0" to="4613300#6"/>
    <trip id="bus163" type="bus_bus" depart="2593.00" departLane="best" from="1133992735#0" to="4615003#5"/>
    <trip id="bus164" type="bus_bus" depart="2608.91" departLane="best" from="1119855803#1" to="-29054704#4"/>
    <trip id="bus165" type="bus_bus" depart="2624.81" departLane="best" from="295445243" to="-1121012037#1"/>
    <trip id="bus166" type="bus_bus" depart="2640.72" departLane="best" from="1052756578#2" to="1151940480#1"/>
    <trip id="bus167" type="bus_bus" depart="2656.63" departLane="best" from="-1055414211#1" to="312924130#2"/>
    <trip id="bus168" type="bus_bus" depart="2672.54" departLane="best" from="1094434971" to="4615500"/>
    <trip id="bus169" type="bus_bus" depart="2688.45" departLane="best" from="-180331459#1" to="293931248"/>
    <trip id="bus170" type="bus_bus" depart="2704.35" departLane="best" departSpeed="max" from="-77348147" to="34580834#20"/>
    <trip id="bus171" type="bus_bus" depart="2720.26" departLane="best" from="10597218#3" to="329774722"/>
    <trip id="bus172" type="bus_bus" depart="2736.17" departLane="best" from="1157396753" to="184429424#1"/>
    <trip id="bus173" type="bus_bus" depart="2752.08" departLane="best" from="1098856696" to="-1052735197#2"/>
    <trip id="bus174" type="bus_bus" depart="2767.99" departLane="best" from="-690429978#8" to="24968394#7"/>
    <trip id="bus175" type="bus_bus" depart="2783.89" departLane="best" from="-1052735197#0" to="19002363#4"/>
    <trip id="bus176" type="bus_bus" depart="2799.80" departLane="best" from="112128419#1" to="-1225924291#1"/>
    <trip id="bus177" type="bus_bus" depart="2815.71" departLane="best" from="-19801644#2" to="-1052734946"/>
    <trip id="bus178" type="bus_bus" depart="2831.62" departLane="best" from="1052675176#5" to="-120948266#1"/>
    <trip id="bus179" type="bus_bus" depart="2847.53" departLane="best" from="-1052734946" to="23809678#2"/>
    <trip id="bus180" type="bus_bus" depart="2863.43" departLane="best" from="-16571799#8" to="1121011269#0"/>
    <trip id="bus181" type="bus_bus" depart="2879.34" departLane="best" from="41927001#1" to="-1040630268#1"/>
    <trip id="bus182" type="bus_bus" depart="2895.25" departLane="best" from="34580834#21" to="-1040630268#1"/>
    <trip id="bus183" type="bus_bus" depart="2911.16" departLane="best" from="320894149#2" to="4613294#1"/>
    <trip id="bus184" type="bus_bus" depart="2927.07" departLane="best" from="-1052675177#0" to="-1150954111#1"/>
    <trip id="bus186" type="bus_bus" depart="2958.88" departLane="best" from="24243530#11" to="34580834#21"/>
    <trip id="bus187" type="bus_bus" depart="2974.79" departLane="best" from="717177007#16" to="-29054704#1"/>
    <trip id="bus188" type="bus_bus" depart="2990.70" departLane="best" from="-29054704#1" to="369223461#0"/>
    <trip id="bus189" type="bus_bus" depart="3006.61" departLane="best" from="-22036538#1" to="184430983#3"/>
    <trip id="bus190" type="bus_bus" depart="3022.51" departLane="best" departSpeed="max" from="4610354#0" to="780281639#0"/>
    <trip id="bus191" type="bus_bus" depart="3038.42" departLane="best" from="-1152640372#1" to="1052675227#6"/>
    <trip id="bus192" type="bus_bus" depart="3054.33" departLane="best" from="-4615497#4" to="24968394#5"/>
    <trip id="bus193" type="bus_bus" depart="3070.24" departLane="best" from="740848375" to="1052735197#1"/>
    <trip id="bus194" type="bus_bus" depart="3086.15" departLane="best" from="301241681#1" to="-1133992729#7"/>
    <trip id="bus195" type="bus_bus" depart="3102.05" departLane="best" from="267542610#1" to="195401013#2"/>
    <trip id="bus196" type="bus_bus" depart="3117.96" departLane="best" from="1150954111#0" to="373389574#0"/>
    <trip id="bus197" type="bus_bus" depart="3133.87" departLane="best" from="4613295#6" to="184077630#5"/>
    <trip id="bus198" type="bus_bus" depart="3149.78" departLane="best" from="-120948266#0" to="850240180#1"/>
    <trip id="bus199" type="bus_bus" depart="3165.69" departLane="best" from="-373389574#5" to="8149654#13"/>
    <trip id="bus200" type="bus_bus" depart="3181.59" departLane="best" from="24243530#7" to="1024034687#0"/>
    <trip id="bus201" type="bus_bus" depart="3197.50" departLane="best" from="1138687770#6" to="-755340907#0"/>
    <trip id="bus202" type="bus_bus" depart="3213.41" departLane="best" departSpeed="max" from="-1151940480#1" to="756306892"/>
    <trip id="bus205" type="bus_bus" depart="3261.13" departLane="best" from="-1150954111#1" to="1133992721#1"/>
    <trip id="bus206" type="bus_bus" depart="3277.04" departLane="best" from="-4613300#3" to="46138135#1"/>
    <trip id="bus208" type="bus_bus" depart="3308.86" departLane="best" from="4615005#2" to="-387892378"/>
    <trip id="bus210" type="bus_bus" depart="3340.67" departLane="best" from="1024034687#1" to="-1052735197#1"/>
    <trip id="bus211" type="bus_bus" depart="3356.58" departLane="best" departSpeed="max" from="-699211935#2" to="4615007#0"/>
    <trip id="bus212" type="bus_bus" depart="3372.49" departLane="best" from="-29054704#3" to="-46138134#2"/>
    <trip id="bus213" type="bus_bus" depart="3388.40" departLane="best" from="1040630268#1" to="-717177007#13"/>
    <trip id="bus214" type="bus_bus" depart="3404.31" departLane="best" from="-1133992729#2" to="34580834#5"/>
    <trip id="bus215" type="bus_bus" depart="3420.21" departLane="best" from="-1133992729#6" to="44427220#1"/>
    <trip id="bus216" type="bus_bus" depart="3436.12" departLane="best" from="268002743#0" to="-4615404#0"/>
    <trip id="bus217" type="bus_bus" depart="3452.03" departLane="best" from="1141076640#5" to="1096709564#4"/>
    <trip id="bus218" type="bus_bus" depart="3467.94" departLane="best" departSpeed="max" from="29202594" to="-4613300#1"/>
    <trip id="bus219" type="bus_bus" depart="3483.85" departLane="best" from="267542609#2" to="4615006#9"/>
    <trip id="bus220" type="bus_bus" depart="3499.75" departLane="best" from="1144528537#0" to="36892597#3"/>
    <trip id="bus221" type="bus_bus" depart="3515.66" departLane="best" from="1133992724#2" to="312645512#2"/>
    <trip id="bus223" type="bus_bus" depart="3547.48" departLane="best" from="-4615003#1" to="-1144528536"/>
    <trip id="bus224" type="bus_bus" depart="3563.38" departLane="best" from="-267542610#1" to="-34580834#24"/>
    <trip id="bus225" type="bus_bus" depart="3579.29" departLane="best" from="23852056#1" to="-1052675176#11"/>
    <trip id="bus226" type="bus_bus" depart="3595.20" departLane="best" from="-1144528529#1" to="-4613300#6"/>
</routes>
