<?xml version="1.0" encoding="UTF-8"?>

<!-- generated on 2025-03-09 12:11:02.711153 by osmWebWizard.py v1_21_0+1920-92e75aa0ef4
<configuration>
    <net-file value="/home/azura/Desktop/sumo/sumo/tools/2025-03-09-12-10-30/osm.net.xml.gz"/>
    <output-trip-file value="/home/azura/Desktop/sumo/sumo/tools/2025-03-09-12-10-30/osm.passenger.trips.xml"/>
    <route-file value="/home/azura/Desktop/sumo/sumo/tools/2025-03-09-12-10-30/osm.passenger.rou.xml"/>
    <prefix value="veh"/>
    <trip-attributes value="departLane=&quot;best&quot;"/>
    <fringe-start-attributes value="departSpeed=&quot;max&quot;"/>
    <vehicle-class value="passenger"/>
    <lanes value="True"/>
    <fringe-factor value="6"/>
    <allow-fringe.min-length value="1000.0"/>
    <via-edge-types value="highway.motorway,highway.motorway_link,highway.trunk_link,highway.primary_link,highway.secondary_link,highway.tertiary_link"/>
    <min-distance value="300.0"/>
    <min-distance.fringe value="10.0"/>
    <remove-loops value="True"/>
    <validate value="True"/>
    <insertion-density value="13.0"/>
</configuration>
-->

<!-- generated on 2025-03-09 12:11:02 by Eclipse SUMO duarouter Version v1_21_0+1920-92e75aa0ef4
<duarouterConfiguration xmlns:xsi="http://www.w3.org/2001/XMLSchema-instance" xsi:noNamespaceSchemaLocation="http://sumo.dlr.de/xsd/duarouterConfiguration.xsd">

    <input>
        <net-file value="/home/azura/Desktop/sumo/sumo/tools/2025-03-09-12-10-30/osm.net.xml.gz"/>
        <route-files value="/home/azura/Desktop/sumo/sumo/tools/2025-03-09-12-10-30/osm.passenger.trips.xml"/>
    </input>

    <output>
        <output-file value="/home/azura/Desktop/sumo/sumo/tools/2025-03-09-12-10-30/osm.passenger.trips.xml.tmp"/>
        <alternatives-output value="NUL"/>
        <write-trips value="true"/>
    </output>

    <processing>
        <remove-loops value="true"/>
    </processing>

    <time>
        <begin value="0.0"/>
        <end value="3600.0"/>
    </time>

    <report>
        <no-warnings value="true"/>
        <ignore-errors value="true"/>
        <no-step-log value="true"/>
    </report>

</duarouterConfiguration>
-->

<routes xmlns:xsi="http://www.w3.org/2001/XMLSchema-instance" xsi:noNamespaceSchemaLocation="http://sumo.dlr.de/xsd/routes_file.xsd">
    <vType id="veh_passenger" vClass="passenger"/>
    <trip id="veh0" type="veh_passenger" depart="0.00" departLane="best" from="24968394#9" to="-1052756577#0"/>
    <trip id="veh1" type="veh_passenger" depart="4.91" departLane="best" from="690429978#7" to="1121001234"/>
    <trip id="veh2" type="veh_passenger" depart="9.83" departLane="best" from="312651884#4" to="298473729"/>
    <trip id="veh3" type="veh_passenger" depart="14.74" departLane="best" departSpeed="max" from="4615404#0" to="-1157444126#1"/>
    <trip id="veh4" type="veh_passenger" depart="19.65" departLane="best" from="1133761630#1" to="-1052758514#3"/>
    <trip id="veh5" type="veh_passenger" depart="24.56" departLane="best" from="-4613300#5" to="1199334220#3"/>
    <trip id="veh6" type="veh_passenger" depart="29.48" departLane="best" departSpeed="max" from="25558788#0" to="184430983#1"/>
    <trip id="veh7" type="veh_passenger" depart="34.39" departLane="best" from="46138134#2" to="234463928#1"/>
    <trip id="veh8" type="veh_passenger" depart="39.30" departLane="best" from="44122832#3" to="-102984483#0"/>
    <trip id="veh9" type="veh_passenger" depart="44.21" departLane="best" from="44122832#0" to="304162878#1"/>
    <trip id="veh10" type="veh_passenger" depart="49.13" departLane="best" from="1052757284#1" to="-268002743#0"/>
    <trip id="veh11" type="veh_passenger" depart="54.04" departLane="best" from="740848375" to="10597218#2"/>
    <trip id="veh12" type="veh_passenger" depart="58.95" departLane="best" from="1158223859#1" to="-1199349086#0"/>
    <trip id="veh14" type="veh_passenger" depart="68.78" departLane="best" from="1101404246#1" to="187103791"/>
    <trip id="veh15" type="veh_passenger" depart="73.69" departLane="best" departSpeed="max" from="4610354#0" to="24326507#0"/>
    <trip id="veh16" type="veh_passenger" depart="78.60" departLane="best" from="4613300#6" to="195401013#2"/>
    <trip id="veh17" type="veh_passenger" depart="83.51" departLane="best" from="301241681#4" to="-1110526068"/>
    <trip id="veh18" type="veh_passenger" depart="88.43" departLane="best" from="-4614987#2" to="-942605588#0"/>
    <trip id="veh19" type="veh_passenger" depart="93.34" departLane="best" from="-1140771916#1" to="4615005#2"/>
    <trip id="veh20" type="veh_passenger" depart="98.25" departLane="best" from="-120948266#2" to="8149654#1"/>
    <trip id="veh21" type="veh_passenger" depart="103.16" departLane="best" from="24968394#5" to="-369223458#0"/>
    <trip id="veh22" type="veh_passenger" depart="108.08" departLane="best" from="1098856696" to="-4606263#1"/>
    <trip id="veh23" type="veh_passenger" depart="112.99" departLane="best" from="-4790879#1" to="699211935#0"/>
    <trip id="veh24" type="veh_passenger" depart="117.90" departLane="best" departSpeed="max" from="25558788#0" to="24243530#15"/>
    <trip id="veh25" type="veh_passenger" depart="122.81" departLane="best" from="320894149#1" to="312651884#2"/>
    <trip id="veh26" type="veh_passenger" depart="127.73" departLane="best" from="-312645512#3" to="1104460750"/>
    <trip id="veh27" type="veh_passenger" depart="132.64" departLane="best" from="940016786#8" to="24968394#4"/>
    <trip id="veh28" type="veh_passenger" depart="137.55" departLane="best" from="4613292#0" to="300401898"/>
    <trip id="veh30" type="veh_passenger" depart="147.38" departLane="best" from="-4614987#6" to="1052758759#1"/>
    <trip id="veh31" type="veh_passenger" depart="152.29" departLane="best" from="1024034687#1" to="-717177007#17"/>
    <trip id="veh32" type="veh_passenger" depart="157.20" departLane="best" from="-4613293#1" to="717177006#3"/>
    <trip id="veh33" type="veh_passenger" depart="162.12" departLane="best" from="4615004#6" to="1052675176#10"/>
    <trip id="veh34" type="veh_passenger" depart="167.03" departLane="best" from="267542609#2" to="1120993183#3"/>
    <trip id="veh35" type="veh_passenger" depart="171.94" departLane="best" departSpeed="max" from="4790842" to="1138687770#3"/>
    <trip id="veh36" type="veh_passenger" depart="176.85" departLane="best" departSpeed="max" from="-4790825#2" to="-4615404#0"/>
    <trip id="veh37" type="veh_passenger" depart="181.77" departLane="best" from="194995004#1" to="-690429978#8"/>
    <trip id="veh38" type="veh_passenger" depart="186.68" departLane="best" from="238682696#1" to="4615500"/>
    <trip id="veh39" type="veh_passenger" depart="191.59" departLane="best" from="1113401735#1" to="-4613300#3"/>
    <trip id="veh40" type="veh_passenger" depart="196.50" departLane="best" from="-981295173#0" to="-120948266#7"/>
    <trip id="veh42" type="veh_passenger" depart="206.33" departLane="best" from="16571799#4" to="24914141#2"/>
    <trip id="veh43" type="veh_passenger" depart="211.24" departLane="best" from="373389574#2" to="1133761676#1"/>
    <trip id="veh44" type="veh_passenger" depart="216.15" departLane="best" departSpeed="max" from="-1134090050" to="1104460751#1"/>
    <trip id="veh45" type="veh_passenger" depart="221.07" departLane="best" from="980371139#1" to="173197451#2"/>
    <trip id="veh46" type="veh_passenger" depart="225.98" departLane="best" departSpeed="max" from="8149664#0" to="4614987#6"/>
    <trip id="veh47" type="veh_passenger" depart="230.89" departLane="best" from="1052675176#12" to="31145647#2"/>
    <trip id="veh48" type="veh_passenger" depart="235.80" departLane="best" from="296122995#0" to="184077626#1"/>
    <trip id="veh49" type="veh_passenger" depart="240.72" departLane="best" from="-4790879#1" to="24968394#5"/>
    <trip id="veh50" type="veh_passenger" depart="245.63" departLane="best" from="168942727#1" to="1133992726#0"/>
    <trip id="veh51" type="veh_passenger" depart="250.54" departLane="best" from="1138687770#5" to="717741321#7"/>
    <trip id="veh52" type="veh_passenger" depart="255.45" departLane="best" from="-4615004#3" to="694626562"/>
    <trip id="veh53" type="veh_passenger" depart="260.37" departLane="best" from="-120948266#3" to="-34580834#13"/>
    <trip id="veh54" type="veh_passenger" depart="265.28" departLane="best" from="4790839#1" to="4615005#4"/>
    <trip id="veh55" type="veh_passenger" depart="270.19" departLane="best" from="-8149654#9" to="24968394#4"/>
    <trip id="veh56" type="veh_passenger" depart="275.10" departLane="best" from="24684997#2" to="-25294728#0"/>
    <trip id="veh57" type="veh_passenger" depart="280.02" departLane="best" from="31619761#1" to="184077630#11"/>
    <trip id="veh58" type="veh_passenger" depart="284.93" departLane="best" from="34580834#24" to="-173197451#6"/>
    <trip id="veh59" type="veh_passenger" depart="289.84" departLane="best" from="-1052675227#5" to="59546763#1"/>
    <trip id="veh61" type="veh_passenger" depart="299.67" departLane="best" from="100405009#2" to="-1133992729#5"/>
    <trip id="veh62" type="veh_passenger" depart="304.58" departLane="best" from="4615005#5" to="-717177007#4"/>
    <trip id="veh63" type="veh_passenger" depart="309.49" departLane="best" departSpeed="max" from="-1151940480#1" to="-1150954111#0"/>
    <trip id="veh64" type="veh_passenger" depart="314.41" departLane="best" from="-1139102398#2" to="-320894149#2"/>
    <trip id="veh65" type="veh_passenger" depart="319.32" departLane="best" from="319339413" to="-184430984#4"/>
    <trip id="veh66" type="veh_passenger" depart="324.23" departLane="best" from="1141076640#1" to="187091991"/>
    <trip id="veh67" type="veh_passenger" depart="329.14" departLane="best" departSpeed="max" from="-4790825#2" to="4615006#3"/>
    <trip id="veh68" type="veh_passenger" depart="334.06" departLane="best" from="1133992718#1" to="-4613287#1"/>
    <trip id="veh69" type="veh_passenger" depart="338.97" departLane="best" from="184430983#7" to="312651884#4"/>
    <trip id="veh70" type="veh_passenger" depart="343.88" departLane="best" from="4606258#1" to="102984483#1"/>
    <trip id="veh72" type="veh_passenger" depart="353.71" departLane="best" from="-184077630#3" to="4614987#4"/>
    <trip id="veh73" type="veh_passenger" depart="358.62" departLane="best" from="1052756577#1" to="23294727#2"/>
    <trip id="veh74" type="veh_passenger" depart="363.53" departLane="best" from="-4614989#2" to="-4613300#5"/>
    <trip id="veh75" type="veh_passenger" depart="368.44" departLane="best" from="-1139102399#0" to="24914141#5"/>
    <trip id="veh76" type="veh_passenger" depart="373.36" departLane="best" from="-4614987#4" to="4790801"/>
    <trip id="veh77" type="veh_passenger" depart="378.27" departLane="best" from="-4613300#10" to="-1139400321#3"/>
    <trip id="veh78" type="veh_passenger" depart="383.18" departLane="best" from="4615005#5" to="296598505"/>
    <trip id="veh79" type="veh_passenger" depart="388.09" departLane="best" from="-4613299#2" to="-19801644#2"/>
    <trip id="veh80" type="veh_passenger" depart="393.01" departLane="best" from="598692947#2" to="195401013#2"/>
    <trip id="veh81" type="veh_passenger" depart="397.92" departLane="best" from="-1140760626#1" to="373389574#2"/>
    <trip id="veh82" type="veh_passenger" depart="402.83" departLane="best" from="44122832#1" to="369223458#2"/>
    <trip id="veh83" type="veh_passenger" depart="407.74" departLane="best" from="-1199334219#4" to="1133992721#1"/>
    <trip id="veh84" type="veh_passenger" depart="412.66" departLane="best" from="1133992718#1" to="1138696720#1"/>
    <trip id="veh85" type="veh_passenger" depart="417.57" departLane="best" from="31145654#1" to="298473729"/>
    <trip id="veh86" type="veh_passenger" depart="422.48" departLane="best" from="940016786#3" to="-120948266#1"/>
    <trip id="veh88" type="veh_passenger" depart="432.31" departLane="best" from="-4613300#5" to="-4615404#2"/>
    <trip id="veh89" type="veh_passenger" depart="437.22" departLane="best" from="373389574#2" to="1133993573#1"/>
    <trip id="veh90" type="veh_passenger" depart="442.13" departLane="best" from="1133761630#1" to="8149654#11"/>
    <trip id="veh91" type="veh_passenger" depart="447.05" departLane="best" from="-4615407#0" to="49180827#7"/>
    <trip id="veh92" type="veh_passenger" depart="451.96" departLane="best" from="188283090#1" to="-112128825#0"/>
    <trip id="veh93" type="veh_passenger" depart="456.87" departLane="best" from="981295183#3" to="-4613293#0"/>
    <trip id="veh94" type="veh_passenger" depart="461.78" departLane="best" from="-8149654#8" to="552963268"/>
    <trip id="veh95" type="veh_passenger" depart="466.70" departLane="best" from="4613292#0" to="-312926085#0"/>
    <trip id="veh96" type="veh_passenger" depart="471.61" departLane="best" from="1115509343#2" to="-1133992729#6"/>
    <trip id="veh97" type="veh_passenger" depart="476.52" departLane="best" from="1020548406" to="940016786#4"/>
    <trip id="veh98" type="veh_passenger" depart="481.43" departLane="best" departSpeed="max" from="-4790825#2" to="-373389574#1"/>
    <trip id="veh99" type="veh_passenger" depart="486.35" departLane="best" from="1138687770#6" to="1133761676#1"/>
    <trip id="veh100" type="veh_passenger" depart="491.26" departLane="best" from="740848375" to="940056668#8"/>
    <trip id="veh101" type="veh_passenger" depart="496.17" departLane="best" from="189133036#0" to="31145647#2"/>
    <trip id="veh102" type="veh_passenger" depart="501.08" departLane="best" from="25294728#1" to="100405009#2"/>
    <trip id="veh103" type="veh_passenger" depart="506.00" departLane="best" from="-8149654#8" to="195401013#2"/>
    <trip id="veh104" type="veh_passenger" depart="510.91" departLane="best" from="187091991" to="312654706#2"/>
    <trip id="veh105" type="veh_passenger" depart="515.82" departLane="best" from="-1133992729#3" to="22036538#2"/>
    <trip id="veh106" type="veh_passenger" depart="520.73" departLane="best" from="-1052758758#0" to="46138135#1"/>
    <trip id="veh107" type="veh_passenger" depart="525.65" departLane="best" from="-268002748#0" to="77348147"/>
    <trip id="veh108" type="veh_passenger" depart="530.56" departLane="best" from="24243530#15" to="298473729"/>
    <trip id="veh109" type="veh_passenger" depart="535.47" departLane="best" from="-4615004#0" to="-184077630#6"/>
    <trip id="veh110" type="veh_passenger" depart="540.38" departLane="best" from="4615362#1" to="-4615404#0"/>
    <trip id="veh111" type="veh_passenger" depart="545.30" departLane="best" from="24243530#15" to="24326507#0"/>
    <trip id="veh112" type="veh_passenger" depart="550.21" departLane="best" from="-1140760605#1" to="22036538#1"/>
    <trip id="veh113" type="veh_passenger" depart="555.12" departLane="best" from="-173197451#6" to="690429978#7"/>
    <trip id="veh114" type="veh_passenger" depart="560.03" departLane="best" from="-4606259#2" to="31145647#1"/>
    <trip id="veh115" type="veh_passenger" depart="564.95" departLane="best" from="-4615006#0" to="1120993183#3"/>
    <trip id="veh116" type="veh_passenger" depart="569.86" departLane="best" from="1024034687#11" to="-312926086#1"/>
    <trip id="veh117" type="veh_passenger" depart="574.77" departLane="best" from="-1139141948#1" to="1138687770#3"/>
    <trip id="veh118" type="veh_passenger" depart="579.68" departLane="best" from="981295182" to="980371139#1"/>
    <trip id="veh119" type="veh_passenger" depart="584.60" departLane="best" from="-1139400321#3" to="-4613293#1"/>
    <trip id="veh120" type="veh_passenger" depart="589.51" departLane="best" departSpeed="max" from="-4790825#2" to="690429978#2"/>
    <trip id="veh121" type="veh_passenger" depart="594.42" departLane="best" from="1098856683#4" to="-276701303#1"/>
    <trip id="veh123" type="veh_passenger" depart="604.25" departLane="best" departSpeed="max" from="24913524#0" to="940016786#7"/>
    <trip id="veh124" type="veh_passenger" depart="609.16" departLane="best" from="26652030#1" to="-1040630268#1"/>
    <trip id="veh125" type="veh_passenger" depart="614.07" departLane="best" from="-1151940480#0" to="100405009#4"/>
    <trip id="veh126" type="veh_passenger" depart="618.99" departLane="best" departSpeed="max" from="288585010#0" to="699211935#2"/>
    <trip id="veh127" type="veh_passenger" depart="623.90" departLane="best" from="-19801644#2" to="-182690326#6"/>
    <trip id="veh128" type="veh_passenger" depart="628.81" departLane="best" from="-154046793#1" to="187103792#1"/>
    <trip id="veh129" type="veh_passenger" depart="633.72" departLane="best" from="671026861#0" to="24241797#0"/>
    <trip id="veh130" type="veh_passenger" depart="638.64" departLane="best" from="309300321#0" to="-4606218#0"/>
    <trip id="veh131" type="veh_passenger" depart="643.55" departLane="best" from="24968394#4" to="699211935#0"/>
    <trip id="veh132" type="veh_passenger" depart="648.46" departLane="best" from="1157396753" to="4790801"/>
    <trip id="veh133" type="veh_passenger" depart="653.37" departLane="best" from="4613286#2" to="-1179820254#0"/>
    <trip id="veh134" type="veh_passenger" depart="658.29" departLane="best" from="1133992718#1" to="-8149653#1"/>
    <trip id="veh135" type="veh_passenger" depart="663.20" departLane="best" from="1024034687#3" to="34580834#3"/>
    <trip id="veh136" type="veh_passenger" depart="668.11" departLane="best" from="24968394#6" to="-690429978#5"/>
    <trip id="veh137" type="veh_passenger" depart="673.02" departLane="best" from="312651884#8" to="187091991"/>
    <trip id="veh138" type="veh_passenger" depart="677.94" departLane="best" from="1133992726#0" to="1052675127#1"/>
    <trip id="veh139" type="veh_passenger" depart="682.85" departLane="best" departSpeed="max" from="4790810" to="184430983#2"/>
    <trip id="veh141" type="veh_passenger" depart="692.67" departLane="best" from="-24241790#3" to="-184430984#0"/>
    <trip id="veh142" type="veh_passenger" depart="697.59" departLane="best" from="100405009#2" to="4615500"/>
    <trip id="veh145" type="veh_passenger" depart="712.32" departLane="best" from="4615404#2" to="-1316026644#1"/>
    <trip id="veh146" type="veh_passenger" depart="717.24" departLane="best" from="34580834#5" to="4615362#2"/>
    <trip id="veh147" type="veh_passenger" depart="722.15" departLane="best" from="25294728#1" to="598692947#0"/>
    <trip id="veh149" type="veh_passenger" depart="731.97" departLane="best" from="44427220#0" to="4615007#8"/>
    <trip id="veh150" type="veh_passenger" depart="736.89" departLane="best" from="1052757284#1" to="312651884#8"/>
    <trip id="veh151" type="veh_passenger" depart="741.80" departLane="best" from="-1052675227#0" to="598692947#1"/>
    <trip id="veh152" type="veh_passenger" depart="746.71" departLane="best" from="4296469#4" to="-4615001#2"/>
    <trip id="veh153" type="veh_passenger" depart="751.63" departLane="best" from="369223460#2" to="-16571799#5"/>
    <trip id="veh154" type="veh_passenger" depart="756.54" departLane="best" from="-1052735197#1" to="46140382"/>
    <trip id="veh155" type="veh_passenger" depart="761.45" departLane="best" departSpeed="max" from="-46138135#1" to="-4606263#3"/>
    <trip id="veh156" type="veh_passenger" depart="766.36" departLane="best" departSpeed="max" from="1138696726#0" to="1024034687#2"/>
    <trip id="veh157" type="veh_passenger" depart="771.28" departLane="best" from="-690429978#0" to="-4615001#0"/>
    <trip id="veh158" type="veh_passenger" depart="776.19" departLane="best" from="-1052756578#2" to="371927739#3"/>
    <trip id="veh159" type="veh_passenger" depart="781.10" departLane="best" from="1052675176#4" to="-4615001#2"/>
    <trip id="veh161" type="veh_passenger" depart="790.93" departLane="best" from="890801131#1" to="183415643"/>
    <trip id="veh162" type="veh_passenger" depart="795.84" departLane="best" from="-694626562" to="-182690326#6"/>
    <trip id="veh163" type="veh_passenger" depart="800.75" departLane="best" departSpeed="max" from="8149664#0" to="-34580834#10"/>
    <trip id="veh164" type="veh_passenger" depart="805.66" departLane="best" from="8149653#1" to="-717177007#1"/>
    <trip id="veh165" type="veh_passenger" depart="810.58" departLane="best" from="16571799#2" to="1133992726#0"/>
    <trip id="veh166" type="veh_passenger" depart="815.49" departLane="best" from="31145654#1" to="1052675127#0"/>
    <trip id="veh167" type="veh_passenger" depart="820.40" departLane="best" from="246052428" to="1316026645#1"/>
    <trip id="veh168" type="veh_passenger" depart="825.31" departLane="best" from="1101404966#1" to="195401013#2"/>
    <trip id="veh170" type="veh_passenger" depart="835.14" departLane="best" from="184430983#3" to="31145647#2"/>
    <trip id="veh171" type="veh_passenger" depart="840.05" departLane="best" from="312651884#8" to="296599839#0"/>
    <trip id="veh172" type="veh_passenger" depart="844.96" departLane="best" from="1096709564#4" to="-1139141948#1"/>
    <trip id="veh173" type="veh_passenger" depart="849.88" departLane="best" departSpeed="max" from="288585010#0" to="-1052758514#3"/>
    <trip id="veh174" type="veh_passenger" depart="854.79" departLane="best" from="309300321#1" to="1006033769"/>
    <trip id="veh176" type="veh_passenger" depart="864.61" departLane="best" from="184430983#3" to="1133761676#1"/>
    <trip id="veh177" type="veh_passenger" depart="869.53" departLane="best" from="-699211935#1" to="298473729"/>
    <trip id="veh178" type="veh_passenger" depart="874.44" departLane="best" departSpeed="max" from="4790810" to="1096709564#1"/>
    <trip id="veh179" type="veh_passenger" depart="879.35" departLane="best" from="896703364" to="184430983#9"/>
    <trip id="veh180" type="veh_passenger" depart="884.26" departLane="best" from="-1006033769" to="-8149664#0"/>
    <trip id="veh181" type="veh_passenger" depart="889.18" departLane="best" from="1133992729#1" to="19801618#0"/>
    <trip id="veh182" type="veh_passenger" depart="894.09" departLane="best" departSpeed="max" from="1133993455#0" to="-4613296#0"/>
    <trip id="veh183" type="veh_passenger" depart="899.00" departLane="best" from="-1140760626#1" to="4790801"/>
    <trip id="veh185" type="veh_passenger" depart="908.83" departLane="best" from="-1150954111#1" to="1096709571#1"/>
    <trip id="veh186" type="veh_passenger" depart="913.74" departLane="best" from="24968394#3" to="10597218#1"/>
    <trip id="veh188" type="veh_passenger" depart="923.57" departLane="best" from="4606218#1" to="-1052756577#0"/>
    <trip id="veh189" type="veh_passenger" depart="928.48" departLane="best" from="-4615007#13" to="1140689523#4"/>
    <trip id="veh190" type="veh_passenger" depart="933.39" departLane="best" from="4613293#1" to="-1140689523#3"/>
    <trip id="veh191" type="veh_passenger" depart="938.30" departLane="best" departSpeed="max" from="1122497068#0" to="24914141#4"/>
    <trip id="veh192" type="veh_passenger" depart="943.22" departLane="best" from="4296469#1" to="301733776"/>
    <trip id="veh193" type="veh_passenger" depart="948.13" departLane="best" from="-19002363#0" to="-4615007#8"/>
    <trip id="veh194" type="veh_passenger" depart="953.04" departLane="best" from="267542609#3" to="-1024034687#8"/>
    <trip id="veh195" type="veh_passenger" depart="957.95" departLane="best" from="369223459#0" to="34580834#23"/>
    <trip id="veh196" type="veh_passenger" depart="962.87" departLane="best" from="-147657122#1" to="1133992717#3"/>
    <trip id="veh197" type="veh_passenger" depart="967.78" departLane="best" from="-34580834#16" to="-755340907#2"/>
    <trip id="veh198" type="veh_passenger" depart="972.69" departLane="best" from="16571799#4" to="-1121012037#1"/>
    <trip id="veh199" type="veh_passenger" depart="977.60" departLane="best" from="4615404#2" to="4613300#5"/>
    <trip id="veh200" type="veh_passenger" depart="982.52" departLane="best" from="1138687770#9" to="44122832#3"/>
    <trip id="veh201" type="veh_passenger" depart="987.43" departLane="best" departSpeed="max" from="288585010#0" to="940056668#0"/>
    <trip id="veh202" type="veh_passenger" depart="992.34" departLane="best" from="24243530#2" to="717741321#4"/>
    <trip id="veh203" type="veh_passenger" depart="997.25" departLane="best" from="4615362#2" to="24243530#5"/>
    <trip id="veh204" type="veh_passenger" depart="1002.17" departLane="best" from="309300321#1" to="1199334219#6"/>
    <trip id="veh205" type="veh_passenger" depart="1007.08" departLane="best" from="4610354#1" to="184430983#9"/>
    <trip id="veh207" type="veh_passenger" depart="1016.90" departLane="best" from="-1140771916#1" to="566764345"/>
    <trip id="veh208" type="veh_passenger" depart="1021.82" departLane="best" from="-4615007#7" to="24968394#3"/>
    <trip id="veh209" type="veh_passenger" depart="1026.73" departLane="best" from="319339413" to="147657138#2"/>
    <trip id="veh210" type="veh_passenger" depart="1031.64" departLane="best" from="24914141#8" to="-755340907#0"/>
    <trip id="veh211" type="veh_passenger" depart="1036.55" departLane="best" from="-1140760626#1" to="-8149664#0"/>
    <trip id="veh212" type="veh_passenger" depart="1041.47" departLane="best" from="234463928#1" to="1052675177#5"/>
    <trip id="veh213" type="veh_passenger" depart="1046.38" departLane="best" from="184430983#9" to="23294727#2"/>
    <trip id="veh214" type="veh_passenger" depart="1051.29" departLane="best" from="-4615001#0" to="301610520#1"/>
    <trip id="veh215" type="veh_passenger" depart="1056.21" departLane="best" from="47016365#1" to="-1138696726#0"/>
    <trip id="veh216" type="veh_passenger" depart="1061.12" departLane="best" from="112128418#4" to="184077630#9"/>
    <trip id="veh217" type="veh_passenger" depart="1066.03" departLane="best" departSpeed="max" from="1122497068#0" to="-4606258#3"/>
    <trip id="veh218" type="veh_passenger" depart="1070.94" departLane="best" from="1133761618#2" to="4790801"/>
    <trip id="veh219" type="veh_passenger" depart="1075.86" departLane="best" from="23852056#3" to="301733776"/>
    <trip id="veh220" type="veh_passenger" depart="1080.77" departLane="best" from="4613299#0" to="34580834#14"/>
    <trip id="veh221" type="veh_passenger" depart="1085.68" departLane="best" from="1101404262#1" to="-1024034687#8"/>
    <trip id="veh222" type="veh_passenger" depart="1090.59" departLane="best" from="1095407470#1" to="-312926086#4"/>
    <trip id="veh223" type="veh_passenger" depart="1095.51" departLane="best" from="4613295#5" to="717741321#7"/>
    <trip id="veh224" type="veh_passenger" depart="1100.42" departLane="best" from="-1140760605#1" to="312654706#2"/>
    <trip id="veh225" type="veh_passenger" depart="1105.33" departLane="best" from="187103792#1" to="24241762#2"/>
    <trip id="veh226" type="veh_passenger" depart="1110.24" departLane="best" from="-46138134#2" to="4613300#3"/>
    <trip id="veh227" type="veh_passenger" depart="1115.16" departLane="best" from="1133992734#1" to="-1052757284#3"/>
    <trip id="veh230" type="veh_passenger" depart="1129.89" departLane="best" from="1139400321#3" to="1199343766"/>
    <trip id="veh231" type="veh_passenger" depart="1134.81" departLane="best" from="24914141#2" to="-1052756578#2"/>
    <trip id="veh232" type="veh_passenger" depart="1139.72" departLane="best" from="1105526086#1" to="189133036#1"/>
    <trip id="veh233" type="veh_passenger" depart="1144.63" departLane="best" from="-1052758758#0" to="24968394#6"/>
    <trip id="veh234" type="veh_passenger" depart="1149.54" departLane="best" from="-22036538#1" to="1138687770#6"/>
    <trip id="veh235" type="veh_passenger" depart="1154.46" departLane="best" from="112128825#0" to="1104460750"/>
    <trip id="veh236" type="veh_passenger" depart="1159.37" departLane="best" from="-4613296#0" to="-1052756578#1"/>
    <trip id="veh237" type="veh_passenger" depart="1164.28" departLane="best" from="312926086#4" to="1104460750"/>
    <trip id="veh239" type="veh_passenger" depart="1174.11" departLane="best" departSpeed="max" from="-4615407#2" to="-1150954111#0"/>
    <trip id="veh240" type="veh_passenger" depart="1179.02" departLane="best" from="-1052675227#5" to="184077630#11"/>
    <trip id="veh241" type="veh_passenger" depart="1183.93" departLane="best" from="981295185#1" to="1096709561"/>
    <trip id="veh242" type="veh_passenger" depart="1188.85" departLane="best" departSpeed="max" from="25558788#0" to="370359204#3"/>
    <trip id="veh243" type="veh_passenger" depart="1193.76" departLane="best" departSpeed="max" from="25558788#0" to="-31619761#1"/>
    <trip id="veh244" type="veh_passenger" depart="1198.67" departLane="best" from="-1052675228#1" to="-25134073"/>
    <trip id="veh245" type="veh_passenger" depart="1203.58" departLane="best" from="184430983#1" to="296598505"/>
    <trip id="veh246" type="veh_passenger" depart="1208.50" departLane="best" from="19801618#0" to="-4613300#1"/>
    <trip id="veh247" type="veh_passenger" depart="1213.41" departLane="best" from="301241483#4" to="34580834#16"/>
    <trip id="veh248" type="veh_passenger" depart="1218.32" departLane="best" from="31619761#1" to="24243530#11"/>
    <trip id="veh249" type="veh_passenger" depart="1223.23" departLane="best" from="312654701#1" to="182690326#4"/>
    <trip id="veh250" type="veh_passenger" depart="1228.15" departLane="best" from="4606258#0" to="-8149653#0"/>
    <trip id="veh251" type="veh_passenger" depart="1233.06" departLane="best" from="1158223859#2" to="-1052756577#0"/>
    <trip id="veh252" type="veh_passenger" depart="1237.97" departLane="best" from="-1006033769" to="298473729"/>
    <trip id="veh253" type="veh_passenger" depart="1242.88" departLane="best" from="755340907#0" to="1120993183#3"/>
    <trip id="veh254" type="veh_passenger" depart="1247.80" departLane="best" from="307098733#1" to="1140771901#1"/>
    <trip id="veh255" type="veh_passenger" depart="1252.71" departLane="best" from="299396267#1" to="24914141#2"/>
    <trip id="veh256" type="veh_passenger" depart="1257.62" departLane="best" from="-120948266#4" to="34580834#6"/>