<?xml version="1.0" encoding="UTF-8"?>

<!-- generated on 2025-03-09 12:10:50 by Eclipse SUMO netconvert Version v1_21_0+1920-92e75aa0ef4
<netconvertConfiguration xmlns:xsi="http://www.w3.org/2001/XMLSchema-instance" xsi:noNamespaceSchemaLocation="http://sumo.dlr.de/xsd/netconvertConfiguration.xsd">

    <input>
        <type-files value="/home/azura/Desktop/sumo/sumo/tools/../data/typemap/osmNetconvert.typ.xml,/home/azura/Desktop/sumo/sumo/tools/../data/typemap/osmNetconvertAerialway.typ.xml"/>
        <osm-files value="osm_bbox.osm.xml.gz"/>
    </input>

    <output>
        <output-file value="osm.net.xml.gz"/>
        <output.street-names value="true"/>
        <output.original-names value="true"/>
        <ptstop-output value="osm_stops.add.xml"/>
        <ptline-output value="osm_ptlines.xml"/>
    </output>

    <projection>
        <proj.utm value="true"/>
    </projection>

    <processing>
        <geometry.remove value="true"/>
        <roundabouts.guess value="true"/>
    </processing>

    <tls_building>
        <tls.discard-simple value="true"/>
        <tls.join value="true"/>
        <tls.guess-signals value="true"/>
        <tls.default-type value="actuated"/>
    </tls_building>

    <ramp_guessing>
        <ramps.guess value="true"/>
    </ramp_guessing>

    <junctions>
        <junctions.join value="true"/>
        <junctions.corner-detail value="5"/>
    </junctions>

    <railway>
        <railway.topology.repair value="true"/>
    </railway>

</netconvertConfiguration>
-->

<additional xmlns:xsi="http://www.w3.org/2001/XMLSchema-instance" xsi:noNamespaceSchemaLocation="http://sumo.dlr.de/xsd/additional_file.xsd">
    <busStop id="-1631354284" name="Mollstraße/Prenzlauer Allee" lane="-1052302087#0_0" startPos="0.00" endPos="25.00" friendlyPos="true">
        <access lane="1181439643#1_0" pos="0.20" length="22.51" friendlyPos="1"/>
        <access lane="1181439643#3_0" pos="0.00" length="22.19" friendlyPos="1"/>
        <access lane="1181439643#4_0" pos="0.00" length="22.17" friendlyPos="1"/>
        <access lane="321236116_0" pos="15.26" length="7.51" friendlyPos="1"/>
        <access lane="321236117_0" pos="0.00" length="4.68" friendlyPos="1"/>
    </busStop>
    <busStop id="-1633759766" name="S Hackescher Markt" lane="-30721657#0_0" startPos="0.00" endPos="25.00" friendlyPos="true">
        <access lane="1157108519#5_0" pos="16.06" length="10.99" friendlyPos="1"/>
        <access lane="268940759_0" pos="2.68" length="4.32" friendlyPos="1"/>
        <access lane="304514893#9_0" pos="5.00" length="2.34" friendlyPos="1"/>
        <access lane="47986664#2_0" pos="0.20" length="11.34" friendlyPos="1"/>
        <access lane="47986664#3_0" pos="0.00" length="11.19" friendlyPos="1"/>
    </busStop>
    <busStop id="-1661140876" name="U Rosa-Luxemburg-Platz" lane="-153424812#0_0" startPos="0.00" endPos="25.00" friendlyPos="true">
        <access lane="1065939388#1_0" pos="0.00" length="15.33" friendlyPos="1"/>
        <access lane="1181446064#1_0" pos="0.00" length="16.67" friendlyPos="1"/>
        <access lane="1181446065#1_0" pos="0.00" length="15.08" friendlyPos="1"/>
        <access lane="464112594_0" pos="3.33" length="10.38" friendlyPos="1"/>
        <access lane="464112595_0" pos="2.73" length="12.86" friendlyPos="1"/>
    </busStop>
    <busStop id="-1662140222" name="U Rosenthaler Platz" lane="-1049894532#0_0" startPos="0.00" endPos="25.00" friendlyPos="true">
        <access lane="1181447802#1_0" pos="0.10" length="19.36" friendlyPos="1"/>
        <access lane="1181447803#1_0" pos="0.20" length="19.02" friendlyPos="1"/>
        <access lane="1181447804#2_0" pos="0.00" length="19.74" friendlyPos="1"/>
        <access lane="380361913_0" pos="5.08" length="8.49" friendlyPos="1"/>
        <access lane="380361917_0" pos="4.82" length="11.78" friendlyPos="1"/>
    </busStop>
    <busStop id="-1662153916" name="U Weinmeisterstraße/Gipsstraße" lane="-153537606#5_0" startPos="53.73" endPos="78.73" friendlyPos="true">
        <access lane="1212138776#3_0" pos="32.83" length="9.08" friendlyPos="1"/>
        <access lane="1212138780#4_0" pos="20.94" length="13.66" friendlyPos="1"/>
        <access lane="955672357_0" pos="58.94" length="40.85" friendlyPos="1"/>
        <access lane="955672359#1_0" pos="0.78" length="37.29" friendlyPos="1"/>
        <access lane="955672360_0" pos="0.00" length="17.50" friendlyPos="1"/>
    </busStop>
    <busStop id="-1668497956" name="S Hackescher Markt" lane="-153537614#13_0" startPos="0.00" endPos="24.41" friendlyPos="true">
        <access lane="1071210926#8_0" pos="7.60" length="12.57" friendlyPos="1"/>
        <access lane="1192158309#1_0" pos="0.00" length="13.17" friendlyPos="1"/>
        <access lane="59286500#2_0" pos="0.00" length="13.20" friendlyPos="1"/>
        <access lane="59286500#3_0" pos="0.00" length="14.23" friendlyPos="1"/>
        <access lane="59286500#4_0" pos="0.00" length="17.12" friendlyPos="1"/>
    </busStop>
    <busStop id="-1745157971" name="Hackescher Markt" lane="-32590640#1_0" startPos="0.00" endPos="180.72" friendlyPos="true">
        <access lane="275008387#1_0" pos="26.68" length="8.50" friendlyPos="1"/>
        <access lane="377110615_0" pos="0.00" length="9.96" friendlyPos="1"/>
        <access lane="377110617_0" pos="0.00" length="13.04" friendlyPos="1"/>
        <access lane="377110622#2_0" pos="0.20" length="9.88" friendlyPos="1"/>
        <access lane="377110622#3_0" pos="0.07" length="6.43" friendlyPos="1"/>
    </busStop>
    <busStop id="-1789092673" name="U Alexanderplatz" lane="-1245947667#1_0" startPos="0.00" endPos="25.00" friendlyPos="true">
        <access lane="272810811_0" pos="0.27" length="1.76" friendlyPos="1"/>
        <access lane="346206389#1_0" pos="2.54" length="9.86" friendlyPos="1"/>
        <access lane="377634148#0_0" pos="0.20" length="6.83" friendlyPos="1"/>
        <access lane="377634148#1_0" pos="0.00" length="3.88" friendlyPos="1"/>
        <access lane="687752789#3_0" pos="0.00" length="8.66" friendlyPos="1"/>
    </busStop>
    <busStop id="-1789130798" name="Am Friedrichshain" lane="-1051378098#0_0" startPos="0.00" endPos="25.00" friendlyPos="true">
        <access lane="1181402837#1_0" pos="0.20" length="20.33" friendlyPos="1"/>
        <access lane="1181402838#1_0" pos="0.20" length="20.07" friendlyPos="1"/>
        <access lane="1181402839#2_0" pos="0.00" length="20.66" friendlyPos="1"/>
        <access lane="793161549_0" pos="0.00" length="6.17" friendlyPos="1"/>
        <access lane="793161550_0" pos="0.00" length="9.07" friendlyPos="1"/>
    </busStop>
    <busStop id="-1862786356" name="Mollstraße/Otto-Braun-Straße" lane="-1047244909_0" startPos="0.00" endPos="25.00" friendlyPos="true">
        <access lane="1181400780#1_0" pos="0.20" length="22.24" friendlyPos="1"/>
        <access lane="1181400781#3_0" pos="0.00" length="20.35" friendlyPos="1"/>
        <access lane="1181400782#1_0" pos="0.00" length="21.35" friendlyPos="1"/>
        <access lane="1181400783_0" pos="3.50" length="21.88" friendlyPos="1"/>
        <access lane="175717569_0" pos="0.00" length="9.59" friendlyPos="1"/>
    </busStop>
    <busStop id="-1866509895" name="Mollstraße/Prenzlauer Allee" lane="-150201975#0_0" startPos="28.57" endPos="53.57" friendlyPos="true">
        <access lane="318882411#1_0" pos="16.85" length="52.71" friendlyPos="1"/>
        <access lane="318882411#2_0" pos="19.30" length="38.08" friendlyPos="1"/>
        <access lane="321236118_0" pos="0.00" length="16.06" friendlyPos="1"/>
        <access lane="321236119_0" pos="32.04" length="16.79" friendlyPos="1"/>
        <access lane="894614640_0" pos="0.20" length="47.67" friendlyPos="1"/>
    </busStop>
    <busStop id="-27411240" name="Hackescher Markt" lane="-4471817#2_0" startPos="0.00" endPos="158.41" friendlyPos="true">
        <access lane="1018271757_0" pos="3.59" length="7.40" friendlyPos="1"/>
        <access lane="377110614_0" pos="0.00" length="15.18" friendlyPos="1"/>
        <access lane="377110617_0" pos="2.91" length="15.07" friendlyPos="1"/>
        <access lane="377110621#0_0" pos="0.00" length="9.95" friendlyPos="1"/>
        <access lane="377110621#1_0" pos="0.00" length="12.94" friendlyPos="1"/>
    </busStop>
    <busStop id="-30731507" name="Mollstraße/Otto-Braun-Straße" lane="-1047244910#0_0" startPos="3.66" endPos="28.66" friendlyPos="true">
        <access lane="1181400777#2_0" pos="0.00" length="29.50" friendlyPos="1"/>
        <access lane="1181400778#1_0" pos="0.00" length="29.65" friendlyPos="1"/>
        <access lane="175717572_0" pos="0.00" length="16.41" friendlyPos="1"/>
        <access lane="310742707#1_0" pos="0.20" length="28.68" friendlyPos="1"/>
        <access lane="312133837#1_0" pos="10.91" length="38.69" friendlyPos="1"/>
    </busStop>
    <busStop id="-30732016" name="U Rosa-Luxemburg-Platz" lane="-1053166648#0_0" startPos="67.79" endPos="92.79" friendlyPos="true">
        <access lane="1157170978_0" pos="16.80" length="34.01" friendlyPos="1"/>
        <access lane="1212503167#2_0" pos="66.16" length="25.65" friendlyPos="1"/>
        <access lane="147063945#1_0" pos="0.27" length="40.19" friendlyPos="1"/>
        <access lane="464112591#0_0" pos="27.87" length="23.67" friendlyPos="1"/>
        <access lane="464112591#1_0" pos="0.00" length="33.47" friendlyPos="1"/>
    </busStop>
    <busStop id="-30732068" name="S+U Alexanderplatz/Memhardstraße" lane="-4791000#1_0" startPos="0.00" endPos="25.00" friendlyPos="true">
        <access lane="1212779637#1_0" pos="0.20" length="18.02" friendlyPos="1"/>
        <access lane="1212779638#1_0" pos="0.00" length="17.99" friendlyPos="1"/>
        <access lane="1212779640#1_0" pos="0.00" length="22.62" friendlyPos="1"/>
        <access lane="171829094_0" pos="4.51" length="9.81" friendlyPos="1"/>
        <access lane="171829097_0" pos="12.02" length="6.21" friendlyPos="1"/>
    </busStop>
    <busStop id="-315735263" name="Zionskirchplatz" lane="-153537603#0_0" startPos="0.00" endPos="12.69" friendlyPos="true">
        <access lane="-1158223843#0_0" pos="0.00" length="18.05" friendlyPos="1"/>
        <access lane="1064910935#2_0" pos="5.96" length="7.75" friendlyPos="1"/>
        <access lane="1158223842#2_0" pos="1.50" length="17.32" friendlyPos="1"/>
        <access lane="389530577#0_0" pos="19.55" length="16.41" friendlyPos="1"/>
        <access lane="389530580#0_0" pos="4.13" length="3.90" friendlyPos="1"/>
    </busStop>
    <busStop id="-3837028203" name="U Rosenthaler Platz" lane="-1049894530#2_0" startPos="10.77" endPos="35.77" friendlyPos="true">
        <access lane="1096068224_0" pos="0.00" length="19.58" friendlyPos="1"/>
        <access lane="1126737708#1_0" pos="23.28" length="13.53" friendlyPos="1"/>
        <access lane="521511473_0" pos="0.00" length="20.90" friendlyPos="1"/>
        <access lane="687333962#3_0" pos="36.62" length="33.44" friendlyPos="1"/>
        <access lane="687333965#4_0" pos="29.21" length="16.02" friendlyPos="1"/>
    </busStop>
    <busStop id="-3867910426" name="S Hackescher Markt" lane="-387892378_0" startPos="13.96" endPos="28.96" friendlyPos="true" lines="N42">
        <access lane="1225719331_0" pos="0.00" length="9.91" friendlyPos="1"/>
        <access lane="1225719334_0" pos="0.00" length="24.28" friendlyPos="1"/>
        <access lane="288005046#1_0" pos="23.38" length="15.22" friendlyPos="1"/>
        <access lane="288005046#2_0" pos="0.00" length="15.05" friendlyPos="1"/>
        <access lane="288005050#2_0" pos="12.14" length="14.02" friendlyPos="1"/>
    </busStop>
    <busStop id="-5907113497" name="U Weinmeisterstraße" lane="-153424801#5_0" startPos="92.59" endPos="117.59" friendlyPos="true">
        <access lane="-1157231002#0_0" pos="0.00" length="17.90" friendlyPos="1"/>
        <access lane="1053278662#8_0" pos="41.16" length="12.64" friendlyPos="1"/>
        <access lane="1071007431#11_0" pos="37.84" length="7.69" friendlyPos="1"/>
        <access lane="1157231002#0_0" pos="0.20" length="15.67" friendlyPos="1"/>
        <access lane="1157419552#0_0" pos="0.00" length="19.36" friendlyPos="1"/>
    </busStop>
    <busStop id="12057874636" lane="301733776_0" startPos="3.15" endPos="18.15" friendlyPos="true">
        <access lane="1224670637#0_0" pos="23.22" length="0.00" friendlyPos="1"/>
        <access lane="1224670637#1_0" pos="0.00" length="14.75" friendlyPos="1"/>
        <access lane="1306330468#1_0" pos="0.00" length="38.61" friendlyPos="1"/>
        <access lane="1306330470#1_0" pos="26.69" length="39.13" friendlyPos="1"/>
        <access lane="346212658_0" pos="48.58" length="11.04" friendlyPos="1"/>
    </busStop>
    <busStop id="1628877119" name="S+U Alexanderplatz/Dircksenstraße" lane="148452597#4_0" startPos="26.20" endPos="51.20" friendlyPos="true">
        <access lane="1079045031#3_0" pos="43.19" length="11.80" friendlyPos="1"/>
        <access lane="687966676_0" pos="0.00" length="14.57" friendlyPos="1"/>
        <access lane="72157171#0_0" pos="0.20" length="34.74" friendlyPos="1"/>
        <access lane="72157171#1_0" pos="0.00" length="34.71" friendlyPos="1"/>
        <access lane="72157171#2_0" pos="0.00" length="36.87" friendlyPos="1"/>
    </busStop>
    <busStop id="1631354284" name="Mollstraße/Prenzlauer Allee" lane="153424809#1_0" startPos="79.90" endPos="104.90" friendlyPos="true" lines="M8">
        <access lane="1181439643#1_0" pos="0.20" length="22.51" friendlyPos="1"/>
        <access lane="1181439643#3_0" pos="0.00" length="22.19" friendlyPos="1"/>
        <access lane="1181439643#4_0" pos="0.00" length="22.17" friendlyPos="1"/>
        <access lane="321236116_0" pos="15.26" length="7.51" friendlyPos="1"/>
        <access lane="321236117_0" pos="0.00" length="4.68" friendlyPos="1"/>
    </busStop>
    <busStop id="1633759766" name="S Hackescher Markt" lane="421641064_0" startPos="40.39" endPos="65.39" friendlyPos="true" lines="M1">
        <access lane="1157108519#5_0" pos="16.06" length="10.99" friendlyPos="1"/>
        <access lane="268940759_0" pos="2.68" length="4.32" friendlyPos="1"/>
        <access lane="304514893#9_0" pos="5.00" length="2.34" friendlyPos="1"/>
        <access lane="47986664#2_0" pos="0.20" length="11.34" friendlyPos="1"/>
        <access lane="47986664#3_0" pos="0.00" length="11.19" friendlyPos="1"/>
    </busStop>
    <busStop id="1661140876" name="U Rosa-Luxemburg-Platz" lane="1053166649#1_0" startPos="94.42" endPos="119.42" friendlyPos="true" lines="M8">
        <access lane="1065939388#1_0" pos="0.00" length="15.33" friendlyPos="1"/>
        <access lane="1181446064#1_0" pos="0.00" length="16.67" friendlyPos="1"/>
        <access lane="1181446065#1_0" pos="0.00" length="15.08" friendlyPos="1"/>
        <access lane="464112594_0" pos="3.33" length="10.38" friendlyPos="1"/>
        <access lane="464112595_0" pos="2.73" length="12.86" friendlyPos="1"/>
    </busStop>
    <busStop id="1662140222" name="U Rosenthaler Platz" lane="153427725#4_0" startPos="59.22" endPos="84.22" friendlyPos="true" lines="M8">
        <access lane="1181447802#1_0" pos="0.10" length="19.36" friendlyPos="1"/>
        <access lane="1181447803#1_0" pos="0.20" length="19.02" friendlyPos="1"/>
        <access lane="1181447804#2_0" pos="0.00" length="19.74" friendlyPos="1"/>
        <access lane="380361913_0" pos="5.08" length="8.49" friendlyPos="1"/>
        <access lane="380361917_0" pos="4.82" length="11.78" friendlyPos="1"/>
    </busStop>
    <busStop id="1662153916" name="U Weinmeisterstraße/Gipsstraße" lane="153537606#5_0" startPos="38.28" endPos="63.28" friendlyPos="true" lines="M1">
        <access lane="1212138776#3_0" pos="32.83" length="9.08" friendlyPos="1"/>
        <access lane="1212138780#4_0" pos="20.94" length="13.66" friendlyPos="1"/>
        <access lane="955672357_0" pos="58.94" length="40.85" friendlyPos="1"/>
        <access lane="955672359#1_0" pos="0.78" length="37.29" friendlyPos="1"/>
        <access lane="955672360_0" pos="0.00" length="17.50" friendlyPos="1"/>
    </busStop>
    <busStop id="1668497956" name="S Hackescher Markt" lane="153537614#13_0" startPos="0.00" endPos="24.41" friendlyPos="true" lines="M1">
        <access lane="1071210926#8_0" pos="7.60" length="12.57" friendlyPos="1"/>
        <access lane="1192158309#1_0" pos="0.00" length="13.17" friendlyPos="1"/>
        <access lane="59286500#2_0" pos="0.00" length="13.20" friendlyPos="1"/>
        <access lane="59286500#3_0" pos="0.00" length="14.23" friendlyPos="1"/>
        <access lane="59286500#4_0" pos="0.00" length="17.12" friendlyPos="1"/>
    </busStop>
    <busStop id="1745157971" name="Hackescher Markt" lane="32590640#1_0" startPos="0.00" endPos="180.72" friendlyPos="true" lines="S5 S7 S3 S9">
        <access lane="275008387#1_0" pos="26.68" length="8.50" friendlyPos="1"/>
        <access lane="377110615_0" pos="0.00" length="9.96" friendlyPos="1"/>
        <access lane="377110617_0" pos="0.00" length="13.04" friendlyPos="1"/>
        <access lane="377110622#2_0" pos="0.20" length="9.88" friendlyPos="1"/>
        <access lane="377110622#3_0" pos="0.07" length="6.43" friendlyPos="1"/>
    </busStop>
    <busStop id="1789092673" name="U Alexanderplatz" lane="1245947667#1_0" startPos="30.90" endPos="55.90" friendlyPos="true" lines="M4 M5 M6">
        <access lane="272810811_0" pos="0.27" length="1.76" friendlyPos="1"/>
        <access lane="346206389#1_0" pos="2.54" length="9.86" friendlyPos="1"/>
        <access lane="377634148#0_0" pos="0.20" length="6.83" friendlyPos="1"/>
        <access lane="377634148#1_0" pos="0.00" length="3.88" friendlyPos="1"/>
        <access lane="687752789#3_0" pos="0.00" length="8.66" friendlyPos="1"/>
    </busStop>
    <busStop id="1789130798" name="Am Friedrichshain" lane="-122462010#0_0" startPos="40.40" endPos="65.40" friendlyPos="true" lines="M4">
        <access lane="1181402837#1_0" pos="0.20" length="20.33" friendlyPos="1"/>
        <access lane="1181402838#1_0" pos="0.20" length="20.07" friendlyPos="1"/>
        <access lane="1181402839#2_0" pos="0.00" length="20.66" friendlyPos="1"/>
        <access lane="793161549_0" pos="0.00" length="6.17" friendlyPos="1"/>
        <access lane="793161550_0" pos="0.00" length="9.07" friendlyPos="1"/>
    </busStop>
    <busStop id="1840238871" name="Marienburger Straße" lane="173149682#2_0" startPos="44.34" endPos="69.34" friendlyPos="true" lines="M2">
        <access lane="-940016762#0_0" pos="3.66" length="17.42" friendlyPos="1"/>
        <access lane="1212771845#2_0" pos="4.51" length="17.56" friendlyPos="1"/>
        <access lane="125654645#1_0" pos="0.00" length="15.80" friendlyPos="1"/>
        <access lane="173188974_0" pos="0.00" length="4.88" friendlyPos="1"/>
        <access lane="940016762#0_0" pos="0.00" length="18.29" friendlyPos="1"/>
    </busStop>
    <busStop id="1840254052" name="Knaackstraße" lane="173149682#5_0" startPos="46.52" endPos="71.52" friendlyPos="true" lines="M2">
        <access lane="1212771851#1_0" pos="0.20" length="17.12" friendlyPos="1"/>
        <access lane="1212771853#1_0" pos="0.20" length="16.88" friendlyPos="1"/>
        <access lane="173190324_0" pos="5.82" length="8.94" friendlyPos="1"/>
        <access lane="173190327_0" pos="6.01" length="5.99" friendlyPos="1"/>
        <access lane="173190331#2_0" pos="0.00" length="18.73" friendlyPos="1"/>
    </busStop>
    <busStop id="1840260314" name="Prenzlauer Allee/Metzer Straße" lane="1052302090#3_0" startPos="84.25" endPos="109.25" friendlyPos="true" lines="M2">
        <access lane="1212771869#2_0" pos="0.00" length="20.56" friendlyPos="1"/>
        <access lane="1212771870#1_0" pos="0.01" length="19.10" friendlyPos="1"/>
        <access lane="173190717_0" pos="4.25" length="9.71" friendlyPos="1"/>
        <access lane="173190718_0" pos="7.50" length="11.66" friendlyPos="1"/>
        <access lane="173190719#2_0" pos="0.20" length="19.83" friendlyPos="1"/>
    </busStop>
    <busStop id="1840309842" name="Mollstraße/Prenzlauer Allee" lane="1052302088_0" startPos="72.43" endPos="97.43" friendlyPos="true" lines="M2">
        <access lane="1181439647#1_0" pos="0.00" length="27.23" friendlyPos="1"/>
        <access lane="173245159_0" pos="12.82" length="9.82" friendlyPos="1"/>
        <access lane="173245161_0" pos="0.00" length="5.81" friendlyPos="1"/>
        <access lane="25835850#0_0" pos="10.50" length="26.92" friendlyPos="1"/>
        <access lane="331114771#2_0" pos="0.00" length="26.84" friendlyPos="1"/>
    </busStop>
    <busStop id="1840333892" name="S+U Alexanderplatz/Memhardstraße" lane="1053166659#6_0" startPos="47.52" endPos="72.52" friendlyPos="true" lines="M2">
        <access lane="1212782002#1_0" pos="0.20" length="20.28" friendlyPos="1"/>
        <access lane="1212782003#1_0" pos="0.00" length="20.14" friendlyPos="1"/>
        <access lane="139877314#1_0" pos="0.00" length="19.90" friendlyPos="1"/>
        <access lane="171829092_0" pos="7.43" length="11.77" friendlyPos="1"/>
        <access lane="171829093_0" pos="5.91" length="8.22" friendlyPos="1"/>
    </busStop>
    <busStop id="1860777021" name="Mollstraße/Otto-Braun-Straße" lane="1328606984#0_0" startPos="83.67" endPos="108.67" friendlyPos="true" lines="M5 M6">
        <access lane="1181400796#2_0" pos="0.20" length="23.70" friendlyPos="1"/>
        <access lane="1181400796#3_0" pos="0.00" length="23.66" friendlyPos="1"/>
        <access lane="1181400797#1_0" pos="0.00" length="24.09" friendlyPos="1"/>
        <access lane="175717568_0" pos="0.00" length="12.13" friendlyPos="1"/>
        <access lane="175717571_0" pos="0.00" length="16.80" friendlyPos="1"/>
    </busStop>
    <busStop id="1862786356" name="Mollstraße/Otto-Braun-Straße" lane="150201975#1_0" startPos="154.02" endPos="179.02" friendlyPos="true" lines="M8">
        <access lane="1181400780#1_0" pos="0.20" length="22.24" friendlyPos="1"/>
        <access lane="1181400781#3_0" pos="0.00" length="20.35" friendlyPos="1"/>
        <access lane="1181400782#1_0" pos="0.00" length="21.35" friendlyPos="1"/>
        <access lane="1181400783_0" pos="3.50" length="21.88" friendlyPos="1"/>
        <access lane="175717569_0" pos="0.00" length="9.59" friendlyPos="1"/>
    </busStop>
    <busStop id="1866509895" name="Mollstraße/Prenzlauer Allee" lane="1052302086_0" startPos="46.37" endPos="71.37" friendlyPos="true" lines="M8">
        <access lane="318882411#1_0" pos="16.85" length="52.71" friendlyPos="1"/>
        <access lane="318882411#2_0" pos="19.30" length="38.08" friendlyPos="1"/>
        <access lane="321236118_0" pos="0.00" length="16.06" friendlyPos="1"/>
        <access lane="321236119_0" pos="32.04" length="16.79" friendlyPos="1"/>
        <access lane="894614640_0" pos="0.20" length="47.67" friendlyPos="1"/>
    </busStop>
    <busStop id="196758117" name="Senefelderplatz" lane="388432540_0" startPos="21.73" endPos="221.73" friendlyPos="true" lines="U2">
        <access lane="1066483297#0_0" pos="0.00" length="12.54" friendlyPos="1"/>
        <access lane="369223464#0_0" pos="13.97" length="9.13" friendlyPos="1"/>
        <access lane="369223464#1_0" pos="0.00" length="9.15" friendlyPos="1"/>
        <access lane="369223484_0" pos="5.94" length="17.22" friendlyPos="1"/>
        <access lane="38424828#0_0" pos="13.49" length="20.57" friendlyPos="1"/>
    </busStop>
    <busStop id="2094266780" name="Alexanderplatz" lane="272795474_0" startPos="0.00" endPos="71.25" friendlyPos="true" lines="U2">
        <access lane="272795495#1_0" pos="6.06" length="22.91" friendlyPos="1"/>
        <access lane="346206389#0_0" pos="21.19" length="15.49" friendlyPos="1"/>
        <access lane="346206389#1_0" pos="0.00" length="26.73" friendlyPos="1"/>
        <access lane="660510098_0" pos="0.00" length="25.64" friendlyPos="1"/>
        <access lane="687752789#3_0" pos="0.82" length="24.95" friendlyPos="1"/>
    </busStop>
    <busStop id="2094266782" name="Rosa-Luxemburg-Platz" lane="200422335#0_0" startPos="462.07" endPos="662.07" friendlyPos="true" lines="U2">
        <access lane="1071049477#2_0" pos="25.15" length="6.42" friendlyPos="1"/>
        <access lane="1071049477#3_0" pos="0.00" length="5.44" friendlyPos="1"/>
        <access lane="1071049481#2_0" pos="42.37" length="25.46" friendlyPos="1"/>
        <access lane="1071049481#3_0" pos="0.00" length="33.06" friendlyPos="1"/>
        <access lane="132333642_0" pos="17.90" length="8.85" friendlyPos="1"/>
    </busStop>
    <busStop id="2094266784" name="Senefelderplatz" lane="388432539_0" startPos="217.40" endPos="417.40" friendlyPos="true" lines="U2">
        <access lane="1073316622_0" pos="12.75" length="13.74" friendlyPos="1"/>
        <access lane="1073316623_0" pos="10.07" length="32.82" friendlyPos="1"/>
        <access lane="1140748899_0" pos="4.07" length="33.30" friendlyPos="1"/>
        <access lane="369223466_0" pos="0.00" length="35.98" friendlyPos="1"/>
        <access lane="38424827#1_0" pos="43.27" length="11.14" friendlyPos="1"/>
    </busStop>
    <busStop id="2135441881" name="U Rosenthaler Platz" lane="1049894529#3_0" startPos="27.64" endPos="52.64" friendlyPos="true" lines="M1">
        <access lane="1096068224_0" pos="0.00" length="9.15" friendlyPos="1"/>
        <access lane="1126737708#1_0" pos="12.57" length="17.67" friendlyPos="1"/>
        <access lane="380361922#3_0" pos="0.00" length="22.53" friendlyPos="1"/>
        <access lane="521511473_0" pos="0.00" length="5.45" friendlyPos="1"/>
        <access lane="687333965#4_0" pos="39.95" length="12.01" friendlyPos="1"/>
    </busStop>
    <busStop id="2135441884" name="Zionskirchplatz" lane="1049894527#6_0" startPos="2.67" endPos="27.67" friendlyPos="true" lines="12 M1">
        <access lane="1064910935#2_0" pos="12.74" length="13.46" friendlyPos="1"/>
        <access lane="1141029187#9_0" pos="15.43" length="13.78" friendlyPos="1"/>
        <access lane="389530577#0_0" pos="10.20" length="11.46" friendlyPos="1"/>
        <access lane="389530580#0_0" pos="11.00" length="10.15" friendlyPos="1"/>
        <access lane="389530580#1_0" pos="0.00" length="14.33" friendlyPos="1"/>
    </busStop>
    <busStop id="2201770565" name="Am Friedrichshain" lane="94351504#5_0" startPos="40.38" endPos="65.38" friendlyPos="true" lines="M4">
        <access lane="1212509530#1_0" pos="0.20" length="14.69" friendlyPos="1"/>
        <access lane="1212509531#2_0" pos="0.00" length="13.45" friendlyPos="1"/>
        <access lane="1212509532#1_0" pos="0.00" length="13.97" friendlyPos="1"/>
        <access lane="1212509535_0" pos="0.00" length="10.13" friendlyPos="1"/>
        <access lane="1212509536_0" pos="0.00" length="7.45" friendlyPos="1"/>
    </busStop>
    <busStop id="244486144" name="Mollstraße/Otto-Braun-Straße" lane="150178430#3_0" startPos="57.07" endPos="82.07" friendlyPos="true" lines="M4">
        <access lane="1181400790#1_0" pos="0.20" length="43.61" friendlyPos="1"/>
        <access lane="175717570_0" pos="0.00" length="34.48" friendlyPos="1"/>
        <access lane="175717573_0" pos="0.00" length="32.90" friendlyPos="1"/>
        <access lane="310742710#1_0" pos="7.32" length="41.68" friendlyPos="1"/>
        <access lane="311215159_0" pos="19.22" length="32.06" friendlyPos="1"/>
    </busStop>
    <busStop id="270719334" name="S+U Alexanderplatz/Memhardstraße" lane="112128419#2_0" startPos="0.00" endPos="15.00" friendlyPos="true" lines="N42">
        <access lane="1212782002#1_0" pos="0.00" length="9.71" friendlyPos="1"/>
        <access lane="1212782003#1_0" pos="0.00" length="12.23" friendlyPos="1"/>
        <access lane="1212782006_0" pos="0.58" length="10.66" friendlyPos="1"/>
        <access lane="171829093_0" pos="0.00" length="11.57" friendlyPos="1"/>
        <access lane="473149640#3_0" pos="0.58" length="14.22" friendlyPos="1"/>
    </busStop>
    <busStop id="270720402" name="Mollstraße/Prenzlauer Allee" lane="24914141#2_0" startPos="7.34" endPos="22.34" friendlyPos="true" lines="200">
        <access lane="1071049515_0" pos="2.44" length="33.68" friendlyPos="1"/>
        <access lane="369224774#0_0" pos="0.00" length="28.18" friendlyPos="1"/>
        <access lane="369224774#1_0" pos="19.63" length="22.50" friendlyPos="1"/>
        <access lane="803483083#1_0" pos="74.80" length="30.61" friendlyPos="1"/>
        <access lane="803483084_0" pos="0.00" length="22.81" friendlyPos="1"/>
    </busStop>
    <busStop id="270727260" name="S+U Alexanderplatz/Memhardstraße" lane="112128419#2_0" startPos="50.05" endPos="65.05" friendlyPos="true" lines="N60 100">
        <access lane="1071049529_0" pos="0.00" length="25.85" friendlyPos="1"/>
        <access lane="1071049530_0" pos="0.00" length="13.15" friendlyPos="1"/>
        <access lane="1113401735#1_0" pos="22.65" length="29.36" friendlyPos="1"/>
        <access lane="473149640#4_0" pos="13.35" length="13.85" friendlyPos="1"/>
        <access lane="473149640#5_0" pos="0.00" length="18.09" friendlyPos="1"/>
    </busStop>
    <busStop id="271327606" name="Mollstraße/Otto-Braun-Straße" lane="187091991_0" startPos="38.09" endPos="53.09" friendlyPos="true" lines="200 142">
        <access lane="310898344_0" pos="70.01" length="63.36" friendlyPos="1"/>
        <access lane="312133836#1_0" pos="45.55" length="16.02" friendlyPos="1"/>
        <access lane="312133837#1_0" pos="0.00" length="71.41" friendlyPos="1"/>
        <access lane="340606599#1_0" pos="9.35" length="68.90" friendlyPos="1"/>
        <access lane="4790835#0_0" pos="45.90" length="72.65" friendlyPos="1"/>
    </busStop>
    <busStop id="271670135" name="U Alexanderplatz" lane="305093247#2_0" startPos="58.95" endPos="73.95" friendlyPos="true" lines="N5">
        <access lane="100944802#6_0" pos="5.81" length="49.36" friendlyPos="1"/>
        <access lane="1224670636#0_0" pos="0.00" length="44.00" friendlyPos="1"/>
        <access lane="346206389#2_0" pos="9.83" length="44.52" friendlyPos="1"/>