<?xml version="1.0" encoding="UTF-8"?>

<!-- generated on 2025-03-09 12:10:57.118471 by osmWebWizard.py v1_21_0+1920-92e75aa0ef4
<configuration>
    <net-file value="/home/azura/Desktop/sumo/sumo/tools/2025-03-09-12-10-30/osm.net.xml.gz"/>
    <ptlines-file value="/home/azura/Desktop/sumo/sumo/tools/2025-03-09-12-10-30/osm_ptlines.xml"/>
    <ptstops-file value="/home/azura/Desktop/sumo/sumo/tools/2025-03-09-12-10-30/osm_stops.add.xml"/>
    <output-file value="/home/azura/Desktop/sumo/sumo/tools/2025-03-09-12-10-30/osm_pt.rou.xml"/>
    <stopinfos-file value="/home/azura/Desktop/sumo/sumo/tools/2025-03-09-12-10-30/stopinfos.xml"/>
    <routes-file value="/home/azura/Desktop/sumo/sumo/tools/2025-03-09-12-10-30/vehroutes.xml"/>
    <trips-file value="/home/azura/Desktop/sumo/sumo/tools/2025-03-09-12-10-30/trips.trips.xml"/>
    <min-stops value="0"/>
    <extend-to-fringe value="True"/>
    <random-begin value="True"/>
    <seed value="42"/>
    <ignore-errors value="True"/>
    <vtype-prefix value="pt_"/>
    <verbose value="True"/>
</configuration>
-->

<routes xmlns:xsi="http://www.w3.org/2001/XMLSchema-instance" xsi:noNamespaceSchemaLocation="http://sumo.dlr.de/xsd/routes_file.xsd">
    <vType id="pt_bus" vClass="bus"/>
    <vType id="pt_tram" vClass="tram"/>
    <vType id="pt_train" vClass="rail"/>
    <vType id="pt_subway" vClass="subway"/>
    <vType id="pt_light_rail" vClass="rail_urban"/>
    <vType id="pt_monorail" vClass="rail_urban"/>
    <vType id="pt_trolleybus" vClass="bus"/>
    <vType id="pt_minibus" vClass="bus"/>
    <vType id="pt_share_taxi" vClass="taxi"/>
    <vType id="pt_aerialway" vClass="cable_car" length="2.5" width="2" personCapacity="4"/>
    <vType id="pt_ferry" vClass="ship"/>
    <route id="pt_bus_370:1" edges="288585010#0 47016365#1 301241483#4 728838409" >
        <stop busStop="6828410667" duration="20" until="107.0"/> <!-- Alexanderplatz -->
    </route>
    <route id="pt_bus_370:0" edges="728838409 301241681#1 301241681#3 301241681#4 246052428 301167584#0 100405009#1 100405009#2 100405009#3 100405009#4 305093247#0 305093247#2 301610520#1 301733776" >
        <stop busStop="6828410667" duration="20" until="45.0"/> <!-- Alexanderplatz -->
    </route>
    <route id="pt_bus_N232:0" edges="288585010#0 47016365#1 301241483#4 728838409 301241681#1 301241681#3 301241681#4 246052428 301167584#0 112128419#1 112128419#2 415280722 195401013#2" >
        <stop busStop="6828410667" duration="20" until="86.0"/> <!-- Alexanderplatz -->
    </route>
    <route id="pt_tram_12:1" color="190,20,20" edges="104669629#2" >
        <stop busStop="315735263" duration="20" until="31.0"/> <!-- Zionskirchplatz -->
    </route>
    <route id="pt_bus_100:0" color="149,39,110" edges="112128419#2 415280722 195401013#2" >
        <stop busStop="270727260" duration="20" until="43.0"/> <!-- S+U Alexanderplatz/Memhardstraße -->
        <stop busStop="4163212867" duration="20" until="82.0"/> <!-- S+U Alexanderplatz/Memhardstraße -->
    </route>
    <route id="pt_bus_065:1" edges="47016365#1 301241483#4 728838409" >
        <stop busStop="6828410667" duration="20" until="199.0"/> <!-- Alexanderplatz -->
    </route>
    <route id="pt_bus_100:1" color="149,39,110" edges="24913524#0 195401006 1113401735#1" >
        <stop busStop="768074068" duration="20" until="35.0"/> <!-- S+U Alexanderplatz/Memhardstraße -->
    </route>
    <route id="pt_light_rail_S5:0" color="242,87,33" edges="25946659#0 25946659#1 32590498#1 32590501#1 32590648 32590649#0 32590649#1 32590649#2 32590640#1 32590640#2" >
        <stop busStop="1745157971" duration="20" until="85.0"/> <!-- Hackescher Markt -->
    </route>
    <route id="pt_light_rail_S5:1" color="242,87,33" edges="32590894 4471817#1 4471817#2 4471817#3 32590638#1 32590645 32590647#0 32590647#1 32590494#1 32590496#1 72984377#1" >
        <stop busStop="27411240" duration="20" until="52.0"/> <!-- Hackescher Markt -->
    </route>
    <route id="pt_bus_N13:0" edges="728838409 301241681#1 301241681#3 301241681#4 246052428 301167584#0 112128419#1 112128419#2 415280722 195401013#2" >
        <stop busStop="6828410667" duration="20" until="128.0"/> <!-- Alexanderplatz -->
    </route>
    <route id="pt_bus_065:0" edges="728838409 301241681#1 301241681#3 301241681#4 246052428 301167584#0 100405009#1 100405009#2 100405009#3 100405009#4 305093247#0 305093247#2 301610520#1 301733776 1133761676#1" >
        <stop busStop="6828410667" duration="20" until="115.0"/> <!-- Alexanderplatz -->
    </route>
    <route id="pt_tram_12:0" color="190,20,20" edges="149398400#3 1049894527#1 1049894527#3 1049894527#4 1049894527#5 1049894527#6 1049894528#0 1049894528#1 1049894528#4 154284647#2 154284647#3 154284647#4 154284647#5" >
        <stop busStop="2135441884" duration="20" until="55.0"/> <!-- Zionskirchplatz -->
        <stop busStop="3741491681" duration="20" until="176.0"/> <!-- Brunnenstraße/Invalidenstraße -->
    </route>
    <route id="pt_light_rail_S7:0" color="128,112,183" edges="25946659#0 25946659#1 32590498#1 32590501#1 32590648 32590649#0 32590649#1 32590649#2 32590640#1 32590640#2" >
        <stop busStop="1745157971" duration="20" until="133.0"/> <!-- Hackescher Markt -->
    </route>
    <route id="pt_light_rail_S7:1" color="128,112,183" edges="32590894 4471817#1 4471817#2 4471817#3 32590638#1 32590645 32590647#0 32590647#1 32590494#1 32590496#1 72984377#1" >
        <stop busStop="27411240" duration="20" until="103.0"/> <!-- Hackescher Markt -->
    </route>
    <route id="pt_bus_002:1" edges="288585010#0 47016365#1 301241483#4 728838409 301241681#1 301241681#3 301241681#4 246052428 301167584#0 112128419#1 112128419#2 415280722 195401013#2" >
        <stop busStop="6828410667" duration="20" until="205.0"/> <!-- Alexanderplatz -->
    </route>
    <route id="pt_light_rail_S3:0" color="5,90,153" edges="25946659#0 25946659#1 32590498#1 32590501#1 32590648 32590649#0 32590649#1 32590649#2 32590640#1 32590640#2" >
        <stop busStop="1745157971" duration="20" until="85.0"/> <!-- Hackescher Markt -->
    </route>
    <route id="pt_light_rail_S3:1" color="5,90,153" edges="32590894 4471817#1 4471817#2 4471817#3 32590638#1 32590645 32590647#0 32590647#1 32590494#1 32590496#1 72984377#1" >
        <stop busStop="27411240" duration="20" until="52.0"/> <!-- Hackescher Markt -->
    </route>
    <route id="pt_bus_N232:1" edges="24913524#0 195401006 1113401735#1 139877314#1 783042668 310357283#2 100405009#1 100405009#2 100405009#3 100405009#4 305093247#0 305093247#2 301610520#1 301733776 47016365#1 301241483#4 728838409 301241681#1 301241681#3 301241681#4 246052428 301167584#0 100405009#1 100405009#2 100405009#3 100405009#4 305093247#0 305093247#2 301610520#1 301733776" >
        <stop busStop="6828410667" duration="20" until="375.0"/> <!-- Alexanderplatz -->
    </route>
    <route id="pt_bus_200:0" color="149,39,110" edges="671026861#0 1133993556#0 4790838#1 304162878#1 187091991 890801131#1 232070355#0 300401898 1101404262#1 24914141#1 24914141#2 24914141#4 24914141#5 24914141#8 318282850#2 112128419#1 112128419#2 415280722 195401013#2" >
        <stop busStop="271327606" duration="20" until="92.0"/> <!-- Mollstraße/Otto-Braun-Straße -->
        <stop busStop="270720402" duration="20" until="217.0"/> <!-- Mollstraße/Prenzlauer Allee -->
        <stop busStop="4163212867" duration="20" until="328.0"/> <!-- S+U Alexanderplatz/Memhardstraße -->
    </route>
    <route id="pt_light_rail_S9:0" color="154,48,82" edges="25946659#0 25946659#1 32590498#1 32590501#1 32590648 32590649#0 32590649#1 32590649#2 32590640#1 32590640#2" >
        <stop busStop="1745157971" duration="20" until="133.0"/> <!-- Hackescher Markt -->
    </route>
    <route id="pt_light_rail_S9:1" color="154,48,82" edges="32590894 4471817#1 4471817#2 4471817#3 32590638#1 32590645 32590647#0 32590647#1 32590494#1 32590496#1 72984377#1" >
        <stop busStop="27411240" duration="20" until="103.0"/> <!-- Hackescher Markt -->
    </route>
    <route id="pt_tram_M8:0" color="255,102,51" edges="1044587219#0 1044587219#1 1044587219#2 1328606985 154305219 154449601#1 154449601#2 154449601#3 154449601#4 154449601#5 94351499 153424809#1 1052302087#1 1052302087#2 1052302087#3 1052302087#4 1052302087#5 1052302087#6 1052302087#7 1052302087#8 1052302087#9 1053166649#1 153424812#1 1053166650#0 1053166650#1 1053166650#3 153427725#1 153427725#2 153427725#3 153427725#4 1049894532#1 1049894532#3 1049894532#4 1049894532#5 1049894532#6" >
        <stop busStop="30731498" duration="20" until="75.0"/> <!-- Mollstraße/Otto-Braun-Straße -->
        <stop busStop="1631354284" duration="20" until="139.0"/> <!-- Mollstraße/Prenzlauer Allee -->
        <stop busStop="1661140876" duration="20" until="241.0"/> <!-- U Rosa-Luxemburg-Platz -->
        <stop busStop="1662140222" duration="20" until="323.0"/> <!-- U Rosenthaler Platz -->
    </route>
    <route id="pt_bus_N13:1" edges="24913524#0 195401006 1113401735#1 139877314#1 783042668 310357283#2 100405009#1 100405009#2 100405009#3 100405009#4 305093247#0 305093247#2 301610520#1 301733776 47016365#1 301241483#4 728838409" >
        <stop busStop="6828410667" duration="20" until="416.0"/> <!-- Alexanderplatz -->
    </route>
    <route id="pt_subway_U2:0" color="218,66,30" edges="388432539 200422335#0 200422335#1" >
        <stop busStop="2094266784" duration="20" until="54.0"/> <!-- Senefelderplatz -->
        <stop busStop="2094266782" duration="20" until="118.0"/> <!-- Rosa-Luxemburg-Platz -->
    </route>
    <route id="pt_subway_U8:1" color="34,79,134" edges="381201610" >
        <stop busStop="5227235608" duration="20" until="41.0"/> <!-- Rosenthaler Platz -->
        <stop busStop="4655287360" duration="20" until="107.0"/> <!-- Weinmeisterstraße -->
    </route>
    <route id="pt_subway_U8:0" color="34,79,134" edges="438860779" >
        <stop busStop="4655287361" duration="20" until="65.0"/> <!-- Weinmeisterstraße -->
        <stop busStop="5227235607" duration="20" until="127.0"/> <!-- Rosenthaler Platz -->
    </route>
    <route id="pt_tram_M2:0" color="51,255,51" edges="173149682#2 173149682#3 173149682#4 173149682#5 173149682#6 1052302090#1 1052302090#2 1052302090#3 1052302090#4 1052302090#8 1052302090#9 1052302090#11 1052302088 1053166661#0 1053166661#1 1053166661#2 1053166661#3 1053166661#4 1053166661#6 1053166661#7 331114772#1 331114772#2 1053166659#1 1053166659#6 1053166659#7 148452597#0 148452597#1 148452597#2 148452597#4 148452597#5" >
        <stop busStop="1840238871" duration="20" until="42.0"/> <!-- Marienburger Straße -->
        <stop busStop="1840254052" duration="20" until="111.0"/> <!-- Knaackstraße -->
        <stop busStop="1840260314" duration="20" until="183.0"/> <!-- Prenzlauer Allee/Metzer Straße -->
        <stop busStop="1840309842" duration="20" until="279.0"/> <!-- Mollstraße/Prenzlauer Allee -->
        <stop busStop="1840333892" duration="20" until="397.0"/> <!-- S+U Alexanderplatz/Memhardstraße -->
    </route>
    <route id="pt_bus_170:1" edges="288585010#0 47016365#1 301241483#4 728838409 301241681#1 301241681#3 301241681#4 246052428 301167584#0 1105526112#1 112128418#2 112128418#4 457031289 1020548406 4484427#0 4484427#1 1344278031#1 1096709571#1 1138687769 24968394#0 24968394#1 24968394#2 24968394#3 24968394#4 24968394#5 24968394#6 24968394#7 24968394#9 1138687770#3 1138687770#4 1138687770#5 1138687770#6 1138687770#8 1138687770#9 1138687770#10 1096709564#1 1096709564#2 1096709564#3 1096709564#4 1096709564#5 1133992721#1 940056668#0 940056668#1 940056668#2 940056668#4 940056668#5 940056668#7 940056668#8 1133992717#3" >
        <stop busStop="6828410667" duration="20" until="164.0"/> <!-- Alexanderplatz -->
    </route>
    <route id="pt_bus_002:0" edges="24913524#0 195401006 1113401735#1 139877314#1 783042668 310357283#2 100405009#1 100405009#2 100405009#3 100405009#4 305093247#0 305093247#2 301610520#1 301733776 47016365#1 301241483#4 728838409 301241681#1 301241681#3 301241681#4 246052428 301167584#0 100405009#1 100405009#2 100405009#3 100405009#4 305093247#0 305093247#2 301610520#1 301733776" >
        <stop busStop="6828410667" duration="20" until="401.0"/> <!-- Alexanderplatz -->
    </route>
    <route id="pt_subway_U2:1" color="218,66,30" edges="272795474 272795470#1 388432540" >
        <stop busStop="2094266780" duration="20" until="31.0"/> <!-- Alexanderplatz -->
        <stop busStop="4961125734" duration="20" until="105.0"/> <!-- Rosa-Luxemburg-Platz -->
        <stop busStop="196758117" duration="20" until="168.0"/> <!-- Senefelderplatz -->
    </route>
    <route id="pt_bus_170:0" edges="1133992718#1 940016786#1 940016786#2 940016786#3 940016786#4 940016786#5 940016786#7 940016786#8 24243530#2 24243530#3 24243530#4 24243530#5 24243530#6 24243530#7 24243530#9 24243530#10 24243530#11 24243530#13 24243530#15 598692947#0 598692947#1 598692947#2 1364759420#0 26652030#1 1104460750 1104460751#1 1101404246#1 177372522 295445243 296122995#0 296122995#1 187103792#1 307098733#1 187103791 311690284 187111590 47016365#1 301241483#4 728838409 301241681#1 301241681#3 301241681#4 246052428 301167584#0 100405009#1 100405009#2 100405009#3 100405009#4 305093247#0 305093247#2 301610520#1 301733776" >
        <stop busStop="6828410667" duration="20" until="549.0"/> <!-- Alexanderplatz -->
    </route>
    <route id="pt_tram_M2:2" color="51,255,51" edges="148457212 148449390#2 4791000#0 4791000#1 4791000#6 4791000#7 1053166660#1 1053166660#2 86208412#1 86208412#3 86208412#4 86208412#5 86208412#6 86208412#7 86208412#8 86208412#9 94131369#0 94131369#2 94131369#3 94131369#7 94131369#8 94131369#9 94131369#10 94131369#11 1052302089#1 173190323#0 173190323#1 173190323#2 173190323#3" >
        <stop busStop="30732068" duration="20" until="76.0"/> <!-- S+U Alexanderplatz/Memhardstraße -->
        <stop busStop="30732071" duration="20" until="259.0"/> <!-- Mollstraße/Prenzlauer Allee -->
        <stop busStop="30733475" duration="20" until="396.0"/> <!-- Prenzlauer Allee/Metzer Straße -->
        <stop busStop="30733478" duration="20" until="484.0"/> <!-- Knaackstraße -->
    </route>
    <route id="pt_bus_1385:1" edges="24913524#0 195401006 1113401735#1 139877314#1 783042668 310357283#2 100405009#1 100405009#2 100405009#3 100405009#4 305093247#0 305093247#2 301610520#1 301733776 47016365#1 301241483#4 728838409 301241681#1 301241681#3 301241681#4 246052428 301167584#0 1105526112#1 112128418#2 112128418#4 457031289 1020548406 4484427#0 4484427#1 1344278031#1 1096709571#1 1138687769 24968394#0 24968394#1 24968394#2 24968394#3 24968394#4 24968394#5 24968394#6 24968394#7 24968394#9 1138687770#3 1138687770#4 1138687770#5 1138687770#6 1138687770#8 1138687770#9 1138687770#10 1096709564#1 1096709564#2 1096709564#3 1096709564#4 1096709564#5 1133992721#1 940056668#0 940056668#1 940056668#2 940056668#4 940056668#5 940056668#7 940056668#8 1133992717#3" >
        <stop busStop="6828410667" duration="20" until="354.0"/> <!-- Alexanderplatz -->
    </route>
    <route id="pt_bus_1385:0" edges="1133992718#1 940016786#1 940016786#2 940016786#3 940016786#4 940016786#5 940016786#7 940016786#8 24243530#2 24243530#3 24243530#4 24243530#5 24243530#6 24243530#7 24243530#9 24243530#10 24243530#11 24243530#13 24243530#15 598692947#0 598692947#1 598692947#2 1364759420#0 26652030#1 1104460750 1104460751#1 1101404246#1 177372522 295445243 296122995#0 296122995#1 187103792#1 307098733#1 187103791 311690284 187111590 47016365#1 301241483#4 728838409 301241681#1 301241681#3 301241681#4 246052428 301167584#0 112128419#1 112128419#2 415280722 195401013#2" >
        <stop busStop="6828410667" duration="20" until="632.0"/> <!-- Alexanderplatz -->
    </route>
    <route id="pt_tram_M2:1" color="51,255,51" edges="173149682#2 173149682#3 173149682#4 173149682#5 173149682#6 1052302090#1 1052302090#2 1052302090#3 1052302090#4 1052302090#8 1052302090#9 1052302090#11 1052302088 1053166661#0 1053166661#1 1053166661#2 1053166661#3 1053166661#4 1053166661#6 1053166661#7 331114772#1 331114772#2 1053166659#1 1053166659#6 1053166659#7 148452597#0 148452597#1 148452597#2 148452597#4 148452597#5" >
        <stop busStop="1840238871" duration="20" until="42.0"/> <!-- Marienburger Straße -->
        <stop busStop="1840254052" duration="20" until="96.0"/> <!-- Knaackstraße -->
        <stop busStop="1840260314" duration="20" until="176.0"/> <!-- Prenzlauer Allee/Metzer Straße -->
        <stop busStop="1840309842" duration="20" until="283.0"/> <!-- Mollstraße/Prenzlauer Allee -->
        <stop busStop="1840333892" duration="20" until="499.0"/> <!-- S+U Alexanderplatz/Memhardstraße -->
    </route>
    <route id="pt_bus_N1385:0" edges="1133992718#1 940016786#1 940016786#2 940016786#3 940016786#4 940016786#5 940016786#7 940016786#8 24243530#2 24243530#3 24243530#4 24243530#5 24243530#6 24243530#7 24243530#9 24243530#10 24243530#11 24243530#13 24243530#15 598692947#0 598692947#1 598692947#2 1364759420#0 26652030#1 1104460750 1104460751#1 1101404246#1 177372522 295445243 296122995#0 296122995#1 187103792#1 307098733#1 187103791 311690284 187111590 47016365#1 301241483#4 728838409 301241681#1 301241681#3 301241681#4 246052428 301167584#0 112128419#1 112128419#2 415280722 195401013#2" >
        <stop busStop="6828410667" duration="20" until="618.0"/> <!-- Alexanderplatz -->
    </route>
    <route id="pt_bus_125:1" edges="1133992718#1 940016786#1 940016786#2 940016786#3 940016786#4 940016786#5 940016786#7 940016786#8 24243530#2 24243530#3 24243530#4 24243530#5 24243530#6 24243530#7 24243530#9 24243530#10 24243530#11 24243530#13 24243530#15 598692947#0 598692947#1 598692947#2 1364759420#0 26652030#1 1104460750 1104460751#1 1101404246#1 177372522 295445243 296122995#0 296122995#1 187103792#1 307098733#1 187103791 311690284 187111590 47016365#1 301241483#4 728838409 301241681#1 301241681#3 301241681#4 246052428 301167584#0 112128419#1 112128419#2 415280722 195401013#2" >
        <stop busStop="6828410667" duration="20" until="646.0"/> <!-- Alexanderplatz -->
    </route>
    <route id="pt_bus_N44:0" edges="728838409 301241681#1 301241681#3 301241681#4 246052428 301167584#0 112128419#1 112128419#2 415280722 195401013#2" >
        <stop busStop="6828410667" duration="20" until="181.0"/> <!-- Alexanderplatz -->
    </route>
    <route id="pt_bus_200:1" color="149,39,110" edges="24913524#0 195401006 1113401735#1 139877314#1 783042668 310357283#2 1105526112#1 112128418#2 112128418#4 457031289 1020548406 1101404246#1 177372522 295445243 296122995#0 296122995#1 4790839#1 311357732#1 311357732#2 189024466 1133993557 1133993573#1 -671026861#0" >
        <stop busStop="768074068" duration="20" until="35.0"/> <!-- S+U Alexanderplatz/Memhardstraße -->
        <stop busStop="3254638244" duration="20" until="328.0"/> <!-- Mollstraße/Prenzlauer Allee -->
        <stop busStop="3918673867" duration="20" until="540.0"/> <!-- Mollstraße/Otto-Braun-Straße -->
    </route>
    <route id="pt_tram_M1:2" color="190,20,20" edges="149398400#3 1049894527#1 1049894527#3 1049894527#4 1049894527#5 1049894527#6 154165306#0 154165306#1 26757071#0 26757071#1 26757071#4 26757071#5 26757071#6 26757071#7 1049894529#1 1049894529#2 1049894529#3 1049894529#4 1049894529#5 1049894529#6 1049894529#7 1049894529#11 1053166655#3 153537614#3 153537614#4 153537614#7 153537614#8 153537614#10 153537614#11 153537614#12 153537614#13 153522303#0 153522303#1 153522303#3 46140393 1328606975#0 1328606975#1 101699679#0 101699679#1 101699679#3" >
        <stop busStop="2135441884" duration="20" until="55.0"/> <!-- Zionskirchplatz -->
        <stop busStop="2135441881" duration="20" until="142.0"/> <!-- U Rosenthaler Platz -->
        <stop busStop="1668497956" duration="20" until="421.0"/> <!-- S Hackescher Markt -->
    </route>
    <route id="pt_bus_N70:1" edges="288585010#0 47016365#1 301241483#4 728838409 301241681#1 301241681#3 301241681#4 246052428 301167584#0 112128419#1 112128419#2 415280722 195401013#2" >
        <stop busStop="6828410667" duration="20" until="250.0"/> <!-- Alexanderplatz -->
    </route>
    <route id="pt_tram_M2:3" color="51,255,51" edges="148457212 148449390#2 4791000#0 4791000#1 4791000#6 4791000#7 1053166660#1 1053166660#2 86208412#1 86208412#3 86208412#4 86208412#5 86208412#6 86208412#7 86208412#8 86208412#9 94131369#0 94131369#2 94131369#3 94131369#7 94131369#8 94131369#9 94131369#10 94131369#11 1052302089#1 173190323#0 173190323#1 173190323#2 173190323#3" >
        <stop busStop="30732068" duration="20" until="66.0"/> <!-- S+U Alexanderplatz/Memhardstraße -->
        <stop busStop="30732071" duration="20" until="272.0"/> <!-- Mollstraße/Prenzlauer Allee -->
        <stop busStop="30733475" duration="20" until="338.0"/> <!-- Prenzlauer Allee/Metzer Straße -->
        <stop busStop="30733478" duration="20" until="394.0"/> <!-- Knaackstraße -->
    </route>
    <route id="pt_bus_N44:1" edges="24913524#0 195401006 1113401735#1 139877314#1 783042668 310357283#2 100405009#1 100405009#2 100405009#3 100405009#4 305093247#0 305093247#2 301610520#1 301733776 47016365#1 301241483#4 728838409" >
        <stop busStop="6828410667" duration="20" until="380.0"/> <!-- Alexanderplatz -->
    </route>
    <route id="pt_bus_070:1" edges="288585010#0 47016365#1 301241483#4 728838409 301241681#1 301241681#3 301241681#4 246052428 301167584#0 112128419#1 112128419#2 415280722 195401013#2" >
        <stop busStop="6828410667" duration="20" until="261.0"/> <!-- Alexanderplatz -->
    </route>
    <route id="pt_bus_270:0" edges="288585010#0 47016365#1 301241483#4 728838409 301241681#1 301241681#3 301241681#4 246052428 301167584#0 112128419#1 112128419#2 415280722 195401013#2" >
        <stop busStop="6828410667" duration="20" until="293.0"/> <!-- Alexanderplatz -->
    </route>
    <route id="pt_bus_142:1" color="149,39,110" edges="320894149#0 320894149#1 320894149#2 740848375 1101404966#1 312654701#0 312654701#1 312654701#5 312654705#2 312654706#1 312654706#2 312654706#3 1105526087 309300321#0 309300321#1 1101404246#1 177372522 295445243 296122995#0 296122995#1 4790839#1 311357732#1 311357732#2 189024466 1133993557 1133993573#1 111251391#1 1134090050" >
        <stop busStop="3918673893" duration="20" until="128.0"/> <!-- U Rosenthaler Platz -->
        <stop busStop="3918673891" duration="20" until="276.0"/> <!-- U Rosa-Luxemburg-Platz -->
        <stop busStop="3254638244" duration="20" until="412.0"/> <!-- Mollstraße/Prenzlauer Allee -->
        <stop busStop="3918673867" duration="20" until="500.0"/> <!-- Mollstraße/Otto-Braun-Straße -->
    </route>
    <route id="pt_bus_125:0" edges="24913524#0 195401006 1113401735#1 139877314#1 783042668 310357283#2 100405009#1 100405009#2 100405009#3 100405009#4 305093247#0 305093247#2 301610520#1 301733776 47016365#1 301241483#4 728838409 301241681#1 301241681#3 301241681#4 246052428 301167584#0 1105526112#1 112128418#2 112128418#4 457031289 1020548406 4484427#0 4484427#1 1344278031#1 1096709571#1 1138687769 24968394#0 24968394#1 24968394#2 24968394#3 24968394#4 24968394#5 24968394#6 24968394#7 24968394#9 1138687770#3 1138687770#4 1138687770#5 1138687770#6 1138687770#8 1138687770#9 1138687770#10 1096709564#1 1096709564#2 1096709564#3 1096709564#4 1096709564#5 1133992721#1 940056668#0 940056668#1 940056668#2 940056668#4 940056668#5 940056668#7 940056668#8 1133992717#3" >
        <stop busStop="6828410667" duration="20" until="385.0"/> <!-- Alexanderplatz -->
    </route>
    <route id="pt_tram_M4:2" color="190,20,20" edges="22962554#0 1245947676#1 1245947676#2 301733774#1 301733774#2 1245947668#0 1245947668#1 22962555#2 22962555#3 22962555#4 150178429 150178430#0 150178430#1 150178430#3 150178892#1 150178892#2 150178892#3 150178892#4 150178892#5 150178892#6 150178892#7 150178892#8 94351504#1 94351504#2 94351504#4 94351504#5 94351501#1" >
        <stop busStop="30731497" duration="20" until="338.0"/> <!-- U Alexanderplatz -->
        <stop busStop="244486144" duration="20" until="450.0"/> <!-- Mollstraße/Otto-Braun-Straße -->
        <stop busStop="2201770565" duration="20" until="776.0"/> <!-- Am Friedrichshain -->
    </route>
    <route id="pt_tram_M5:1" color="190,20,20" edges="101699676#0 1245947676#1 1245947676#2 301733774#1 301733774#2 1245947668#0 1245947668#1 22962555#2 22962555#3 22962555#4 150178429 150190354 46517264#1 46517264#2 150178427#0 150178427#1 150178427#4 94351498 82758167#1 82758167#2" >
        <stop busStop="30731497" duration="20" until="365.0"/> <!-- U Alexanderplatz -->
        <stop busStop="595038851" duration="20" until="484.0"/> <!-- Mollstraße/Otto-Braun-Straße -->
    </route>
    <route id="pt_bus_N1385:1" edges="24913524#0 195401006 1113401735#1 139877314#1 783042668 310357283#2 100405009#1 100405009#2 100405009#3 100405009#4 305093247#0 305093247#2 301610520#1 301733776 47016365#1 301241483#4 728838409 301241681#1 301241681#3 301241681#4 246052428 301167584#0 1105526112#1 112128418#2 112128418#4 457031289 1020548406 4484427#0 4484427#1 1344278031#1 1096709571#1 1138687769 24968394#0 24968394#1 24968394#2 24968394#3 24968394#4 24968394#5 24968394#6 24968394#7 24968394#9 1138687770#3 1138687770#4 1138687770#5 1138687770#6 1138687770#8 1138687770#9 1138687770#10 1096709564#1 1096709564#2 1096709564#3 1096709564#4 1096709564#5 1133992721#1 940056668#0 940056668#1 940056668#2 940056668#4 940056668#5 940056668#7 940056668#8 1133992717#3" >
        <stop busStop="6828410667" duration="20" until="387.0"/> <!-- Alexanderplatz -->
    </route>
    <route id="pt_tram_M1:3" color="190,20,20" edges="149398400#3 1049894527#1 1049894527#3 1049894527#4 1049894527#5 1049894527#6 154165306#0 154165306#1 26757071#0 26757071#1 26757071#4 26757071#5 26757071#6 26757071#7 1049894529#1 1049894529#2 1049894529#3 1049894529#4 1049894529#5 1049894529#6 1049894529#7 1049894529#11 1053166655#3 153537614#3 153537614#4 153537614#7 153537614#8 153537614#10 153537614#11 153537614#12 153537614#13 153522303#0 153522303#1 153522303#3 46140393 1328606975#0 1328606975#1 101699679#0 101699679#1 101699679#3" >
        <stop busStop="2135441884" duration="20" until="55.0"/> <!-- Zionskirchplatz -->
        <stop busStop="2135441881" duration="20" until="157.0"/> <!-- U Rosenthaler Platz -->
        <stop busStop="1668497956" duration="20" until="450.0"/> <!-- S Hackescher Markt -->
    </route>
    <route id="pt_bus_N70:0" edges="24913524#0 195401006 1113401735#1 139877314#1 783042668 310357283#2 100405009#1 100405009#2 100405009#3 100405009#4 305093247#0 305093247#2 301610520#1 301733776 47016365#1 301241483#4 728838409 301241681#1 301241681#3 301241681#4 246052428 301167584#0 100405009#1 100405009#2 100405009#3 100405009#4 305093247#0 305093247#2 301610520#1 301733776" >
        <stop busStop="6828410667" duration="20" until="322.0"/> <!-- Alexanderplatz -->
    </route>
    <route id="pt_bus_057:0" edges="1133992718#1 940016786#1 940016786#2 940016786#3 940016786#4 940016786#5 940016786#7 940016786#8 24243530#2 24243530#3 24243530#4 24243530#5 24243530#6 24243530#7 24243530#9 24243530#10 24243530#11 24243530#13 24243530#15 598692947#0 598692947#1 598692947#2 1364759420#0 26652030#1 1104460750 1104460751#1 1101404246#1 177372522 295445243 296122995#0 296122995#1 187103792#1 307098733#1 187103791 311690284 187111590 47016365#1 301241483#4 728838409 301241681#1 301241681#3 301241681#4 246052428 301167584#0 112128419#1 112128419#2 415280722 195401013#2" >
        <stop busStop="6828410667" duration="20" until="389.0"/> <!-- Alexanderplatz -->
    </route>
    <route id="pt_bus_142:0" color="149,39,110" edges="-1134090050 -111251391#2 1133993556#0 4790838#1 304162878#1 187091991 890801131#1 232070355#0 300401898 153689810#1 319339413 1105526086#0 1105526086#1 102983787#0 1101404342#1 312651884#1 312651884#2 312651884#4 312651884#5 312651884#6 312651884#7 312651884#8 312651884#9 312651886#2 -740848375 -320894149#2 -320894149#1 -320894149#0" >
        <stop busStop="271327606" duration="20" until="119.0"/> <!-- Mollstraße/Otto-Braun-Straße -->
        <stop busStop="3918673868" duration="20" until="192.0"/> <!-- Mollstraße/Prenzlauer Allee -->
        <stop busStop="3918673892" duration="20" until="529.0"/> <!-- U Rosa-Luxemburg-Platz -->
        <stop busStop="3918673894" duration="20" until="618.0"/> <!-- U Rosenthaler Platz -->
    </route>
    <route id="pt_tram_M1:0" color="190,20,20" edges="101699676#0 101699676#1 101699676#2 101699676#3 101699676#4 101699676#5 101699676#6 101699676#7 101699676#8 101699676#9 30721656#0 30721656#1 30721656#2 30721656#3 30721656#4 421641065#1 421641065#2 1328606998 28341062#0 28341062#1 1053166656#1 421641064 30721657#1 30721657#2 1328606977#0 1328606977#1 46140383#0 46140383#1 46140383#2 46140383#3 143931935#0 143931935#1 153537606#1 153537606#2 153537606#3 153537606#4 153537606#5 153537606#6 -153537612#1 -153537612#0 -143931933#7 -143931933#5 -143931933#4 -143931933#3 -143931933#0 -1049894530#10 -1049894530#7 -1049894530#6 -1049894530#5 -1049894530#4 -1049894530#3 -1049894530#2 -1049894530#1 -1049894530#0 -168253001#6 -168253001#5 -168253001#4 -168253001#1 -168253001#0 -153537603#1 -153537603#0 -104669629#1 -104669629#0" >
        <stop busStop="1633759766" duration="20" until="81.0"/> <!-- S Hackescher Markt -->
        <stop busStop="1662153916" duration="20" until="248.0"/> <!-- U Weinmeisterstraße/Gipsstraße -->
        <stop busStop="-3837028203" duration="20" until="518.0"/> <!-- U Rosenthaler Platz -->
        <stop busStop="-315735263" duration="20" until="596.0"/> <!-- Zionskirchplatz -->
    </route>
    <route id="pt_bus_070:0" edges="24913524#0 195401006 1113401735#1 139877314#1 783042668 310357283#2 100405009#1 100405009#2 100405009#3 100405009#4 305093247#0 305093247#2 301610520#1 301733776 47016365#1 301241483#4 728838409 301241681#1 301241681#3 301241681#4 246052428 301167584#0 100405009#1 100405009#2 100405009#3 100405009#4 305093247#0 305093247#2 301610520#1 301733776" >
        <stop busStop="6828410667" duration="20" until="307.0"/> <!-- Alexanderplatz -->
    </route>